1add_ligand


 24 26  0  0  0  0  0  0  0  0999 V2000
    8.1977   19.1783   37.4425 C   0  0  0  0  0  0  0  0  0  0  0  0
    7.0204   19.7954   37.9817 O   0  0  0  0  0  0  0  0  0  0  0  0
    7.6900   18.0446   36.5478 C   0  0  0  0  0  0  0  0  0  0  0  0
    8.6160   16.9605   36.4093 O   0  0  0  0  0  0  0  0  0  0  0  0
    6.4042   17.6125   37.2298 C   0  0  0  0  0  0  0  0  0  0  0  0
    6.8241   16.6747   38.2081 O   0  0  0  0  0  0  0  0  0  0  0  0
    5.9654   18.8309   38.0421 C   0  0  0  0  0  0  0  0  0  0  0  0
    8.7955   16.5875   37.2644 H   0  0  0  0  0  0  0  0  0  0  0  0
    7.2622   15.9480   37.7810 H   0  0  0  0  0  0  0  0  0  0  0  0
    4.7208   19.2993   37.5848 N   0  0  0  0  0  0  0  0  0  0  0  0
    4.2367   19.2514   36.3308 C   0  0  0  0  0  0  0  0  0  0  0  0
    2.9841   19.7275   36.2715 N   0  0  0  0  0  0  0  0  0  0  0  0
    2.6544   19.9984   37.5622 C   0  0  0  0  0  0  0  0  0  0  0  0
    1.5025   20.4626   38.1343 C   0  0  0  0  0  0  0  0  0  0  0  0
    0.3960   20.6750   37.4168 N   0  0  0  0  0  0  0  0  0  0  0  0
    1.5062   20.7059   39.4896 C   0  0  0  0  0  0  0  0  0  0  0  0
    2.6479   20.4842   40.2488 C   0  0  0  0  0  0  0  0  0  0  0  0
    3.7483   20.0334   39.6672 N   0  0  0  0  0  0  0  0  0  0  0  0
    3.7376   19.7954   38.3473 C   0  0  0  0  0  0  0  0  0  0  0  0
   -0.4565   21.0253   37.8766 H   0  0  0  0  0  0  0  0  0  0  0  0
    0.3954   20.4887   36.4038 H   0  0  0  0  0  0  0  0  0  0  0  0
   10.1913   19.6225   36.0910 O   0  0  0  0  0  0  0  0  0  0  0  0
    9.0371   20.2105   36.6976 C   0  0  0  0  0  0  0  0  0  0  0  0
   10.7336   19.2263   36.7628 H   0  0  0  0  0  0  0  0  0  0  0  0
 23 22  1  0  0  0
 23  1  1  0  0  0
  1  2  1  0  0  0
  1  3  1  0  0  0
  2  7  1  0  0  0
  3  4  1  0  0  0
  3  5  1  0  0  0
  5  6  1  0  0  0
  7  5  1  0  0  0
  7 10  1  0  0  0
 10 11  1  0  0  0
 10 19  1  0  0  0
 11 12  2  0  0  0
 12 13  1  0  0  0
 13 14  2  0  0  0
 13 19  1  0  0  0
 14 15  1  0  0  0
 14 16  1  0  0  0
 16 17  2  0  0  0
 17 18  1  0  0  0
 18 19  2  0  0  0
 22 24  1  0  0  0
  4  8  1  0  0  0
  6  9  1  0  0  0
 15 20  1  0  0  0
 15 21  1  0  0  0
M  END
> <minimizedAffinity>
-9.47594

$$$$
1add_ligand


 24 26  0  0  0  0  0  0  0  0999 V2000
    8.0822   17.7816   37.8984 C   0  0  0  0  0  0  0  0  0  0  0  0
    7.2941   18.9773   37.8164 O   0  0  0  0  0  0  0  0  0  0  0  0
    7.0754   16.6411   38.0700 C   0  0  0  0  0  0  0  0  0  0  0  0
    7.6048   15.5037   38.7614 O   0  0  0  0  0  0  0  0  0  0  0  0
    5.9374   17.2939   38.8340 C   0  0  0  0  0  0  0  0  0  0  0  0
    6.3200   17.1831   40.1957 O   0  0  0  0  0  0  0  0  0  0  0  0
    6.0677   18.7860   38.5279 C   0  0  0  0  0  0  0  0  0  0  0  0
    7.8868   15.7655   39.6300 H   0  0  0  0  0  0  0  0  0  0  0  0
    6.4206   16.2659   40.4216 H   0  0  0  0  0  0  0  0  0  0  0  0
    4.9239   19.2467   37.8520 N   0  0  0  0  0  0  0  0  0  0  0  0
    4.6577   19.1595   36.5364 C   0  0  0  0  0  0  0  0  0  0  0  0
    3.4390   19.6415   36.2509 N   0  0  0  0  0  0  0  0  0  0  0  0
    2.8996   19.9584   37.4579 C   0  0  0  0  0  0  0  0  0  0  0  0
    1.6735   20.4493   37.8117 C   0  0  0  0  0  0  0  0  0  0  0  0
    0.7066   20.6445   36.9111 N   0  0  0  0  0  0  0  0  0  0  0  0
    1.4516   20.7385   39.1395 C   0  0  0  0  0  0  0  0  0  0  0  0
    2.4460   20.5352   40.0875 C   0  0  0  0  0  0  0  0  0  0  0  0
    3.6232   20.0577   39.7152 N   0  0  0  0  0  0  0  0  0  0  0  0
    3.8324   19.7750   38.4209 C   0  0  0  0  0  0  0  0  0  0  0  0
   -0.2069   21.0158   37.2086 H   0  0  0  0  0  0  0  0  0  0  0  0
    0.8746   20.4238   35.9191 H   0  0  0  0  0  0  0  0  0  0  0  0
    8.7738   16.3727   36.0182 O   0  0  0  0  0  0  0  0  0  0  0  0
    8.9533   17.6409   36.6548 C   0  0  0  0  0  0  0  0  0  0  0  0
    9.0061   15.6794   36.6247 H   0  0  0  0  0  0  0  0  0  0  0  0
 23 22  1  0  0  0
 23  1  1  0  0  0
  1  2  1  0  0  0
  1  3  1  0  0  0
  2  7  1  0  0  0
  3  4  1  0  0  0
  3  5  1  0  0  0
  5  6  1  0  0  0
  7  5  1  0  0  0
  7 10  1  0  0  0
 10 11  1  0  0  0
 10 19  1  0  0  0
 11 12  2  0  0  0
 12 13  1  0  0  0
 13 14  2  0  0  0
 13 19  1  0  0  0
 14 15  1  0  0  0
 14 16  1  0  0  0
 16 17  2  0  0  0
 17 18  1  0  0  0
 18 19  2  0  0  0
 22 24  1  0  0  0
  4  8  1  0  0  0
  6  9  1  0  0  0
 15 20  1  0  0  0
 15 21  1  0  0  0
M  END
> <minimizedAffinity>
-7.49691

$$$$
1add_ligand


 24 26  0  0  0  0  0  0  0  0999 V2000
    4.5996   19.6706   38.3126 C   0  0  0  0  0  0  0  0  0  0  0  0
    5.5671   19.0049   39.1362 O   0  0  0  0  0  0  0  0  0  0  0  0
    4.5290   18.8498   37.0224 C   0  0  0  0  0  0  0  0  0  0  0  0
    4.1341   19.6114   35.8753 O   0  0  0  0  0  0  0  0  0  0  0  0
    5.9368   18.2984   36.8836 C   0  0  0  0  0  0  0  0  0  0  0  0
    6.6505   19.3240   36.2116 O   0  0  0  0  0  0  0  0  0  0  0  0
    6.5037   18.3150   38.3032 C   0  0  0  0  0  0  0  0  0  0  0  0
    4.7592   20.3121   35.7311 H   0  0  0  0  0  0  0  0  0  0  0  0
    6.2474   19.4878   35.3672 H   0  0  0  0  0  0  0  0  0  0  0  0
    6.8043   17.0072   38.7235 N   0  0  0  0  0  0  0  0  0  0  0  0
    6.4237   16.4042   39.8639 C   0  0  0  0  0  0  0  0  0  0  0  0
    6.8333   15.1275   39.9025 N   0  0  0  0  0  0  0  0  0  0  0  0
    7.4161   14.9133   38.6932 C   0  0  0  0  0  0  0  0  0  0  0  0
    7.9786   13.8002   38.1328 C   0  0  0  0  0  0  0  0  0  0  0  0
    7.9693   12.6178   38.7541 N   0  0  0  0  0  0  0  0  0  0  0  0
    8.5606   13.9253   36.8912 C   0  0  0  0  0  0  0  0  0  0  0  0
    8.5726   15.1472   36.2312 C   0  0  0  0  0  0  0  0  0  0  0  0
    8.0192   16.2076   36.7984 N   0  0  0  0  0  0  0  0  0  0  0  0
    7.4512   16.0789   38.0066 C   0  0  0  0  0  0  0  0  0  0  0  0
    8.4014   11.7972   38.3061 H   0  0  0  0  0  0  0  0  0  0  0  0
    7.5300   12.5268   39.6813 H   0  0  0  0  0  0  0  0  0  0  0  0
    3.3974   20.4203   40.3105 O   0  0  0  0  0  0  0  0  0  0  0  0
    3.2654   19.7678   39.0445 C   0  0  0  0  0  0  0  0  0  0  0  0
    4.0017   19.9309   40.8563 H   0  0  0  0  0  0  0  0  0  0  0  0
 23 22  1  0  0  0
 23  1  1  0  0  0
  1  2  1  0  0  0
  1  3  1  0  0  0
  2  7  1  0  0  0
  3  4  1  0  0  0
  3  5  1  0  0  0
  5  6  1  0  0  0
  7  5  1  0  0  0
  7 10  1  0  0  0
 10 11  1  0  0  0
 10 19  1  0  0  0
 11 12  2  0  0  0
 12 13  1  0  0  0
 13 14  2  0  0  0
 13 19  1  0  0  0
 14 15  1  0  0  0
 14 16  1  0  0  0
 16 17  2  0  0  0
 17 18  1  0  0  0
 18 19  2  0  0  0
 22 24  1  0  0  0
  4  8  1  0  0  0
  6  9  1  0  0  0
 15 20  1  0  0  0
 15 21  1  0  0  0
M  END
> <minimizedAffinity>
-7.44892

$$$$
1add_ligand


 24 26  0  0  0  0  0  0  0  0999 V2000
    6.0384   19.0114   37.4669 C   0  0  0  0  0  0  0  0  0  0  0  0
    6.2151   18.0802   38.5435 O   0  0  0  0  0  0  0  0  0  0  0  0
    6.7031   18.3599   36.2515 C   0  0  0  0  0  0  0  0  0  0  0  0
    7.1819   19.3003   35.2829 O   0  0  0  0  0  0  0  0  0  0  0  0
    7.8306   17.5490   36.8648 C   0  0  0  0  0  0  0  0  0  0  0  0
    8.9035   18.4701   36.9785 O   0  0  0  0  0  0  0  0  0  0  0  0
    7.3929   17.3026   38.3087 C   0  0  0  0  0  0  0  0  0  0  0  0
    7.8266   19.8691   35.6871 H   0  0  0  0  0  0  0  0  0  0  0  0
    9.1296   18.7992   36.1165 H   0  0  0  0  0  0  0  0  0  0  0  0
    7.2378   15.9248   38.5428 N   0  0  0  0  0  0  0  0  0  0  0  0
    7.0604   14.9525   37.6304 C   0  0  0  0  0  0  0  0  0  0  0  0
    7.0205   13.7421   38.2069 N   0  0  0  0  0  0  0  0  0  0  0  0
    7.2719   13.9757   39.5223 C   0  0  0  0  0  0  0  0  0  0  0  0
    7.3999   13.1349   40.5929 C   0  0  0  0  0  0  0  0  0  0  0  0
    7.3515   11.8072   40.4551 N   0  0  0  0  0  0  0  0  0  0  0  0
    7.5877   13.6955   41.8364 C   0  0  0  0  0  0  0  0  0  0  0  0
    7.6456   15.0742   41.9936 C   0  0  0  0  0  0  0  0  0  0  0  0
    7.5193   15.8633   40.9382 N   0  0  0  0  0  0  0  0  0  0  0  0
    7.3397   15.3113   39.7291 C   0  0  0  0  0  0  0  0  0  0  0  0
    7.4512   11.1998   41.2810 H   0  0  0  0  0  0  0  0  0  0  0  0
    7.2145   11.3908   39.5230 H   0  0  0  0  0  0  0  0  0  0  0  0
    4.1996   19.3215   35.8790 O   0  0  0  0  0  0  0  0  0  0  0  0
    4.5556   19.3040   37.2642 C   0  0  0  0  0  0  0  0  0  0  0  0
    4.6998   19.9948   35.4330 H   0  0  0  0  0  0  0  0  0  0  0  0
 23 22  1  0  0  0
 23  1  1  0  0  0
  1  2  1  0  0  0
  1  3  1  0  0  0
  2  7  1  0  0  0
  3  4  1  0  0  0
  3  5  1  0  0  0
  5  6  1  0  0  0
  7  5  1  0  0  0
  7 10  1  0  0  0
 10 11  1  0  0  0
 10 19  1  0  0  0
 11 12  2  0  0  0
 12 13  1  0  0  0
 13 14  2  0  0  0
 13 19  1  0  0  0
 14 15  1  0  0  0
 14 16  1  0  0  0
 16 17  2  0  0  0
 17 18  1  0  0  0
 18 19  2  0  0  0
 22 24  1  0  0  0
  4  8  1  0  0  0
  6  9  1  0  0  0
 15 20  1  0  0  0
 15 21  1  0  0  0
M  END
> <minimizedAffinity>
-7.30154

$$$$
1add_ligand


 24 26  0  0  0  0  0  0  0  0999 V2000
    6.5518   13.8811   40.7961 C   0  0  0  0  0  0  0  0  0  0  0  0
    6.1992   14.9154   39.8669 O   0  0  0  0  0  0  0  0  0  0  0  0
    7.7600   13.1727   40.1780 C   0  0  0  0  0  0  0  0  0  0  0  0
    7.8921   11.8034   40.5773 O   0  0  0  0  0  0  0  0  0  0  0  0
    7.5179   13.3106   38.6855 C   0  0  0  0  0  0  0  0  0  0  0  0
    6.6852   12.2085   38.3619 O   0  0  0  0  0  0  0  0  0  0  0  0
    6.6009   14.5262   38.5500 C   0  0  0  0  0  0  0  0  0  0  0  0
    7.1165   11.3218   40.3144 H   0  0  0  0  0  0  0  0  0  0  0  0
    7.1349   11.3996   38.5764 H   0  0  0  0  0  0  0  0  0  0  0  0
    7.2394   15.5389   37.8124 N   0  0  0  0  0  0  0  0  0  0  0  0
    8.0751   15.3909   36.7689 C   0  0  0  0  0  0  0  0  0  0  0  0
    8.4410   16.5781   36.2631 N   0  0  0  0  0  0  0  0  0  0  0  0
    7.7289   17.4925   36.9737 C   0  0  0  0  0  0  0  0  0  0  0  0
    7.6465   18.8547   36.8889 C   0  0  0  0  0  0  0  0  0  0  0  0
    8.2855   19.5409   35.9377 N   0  0  0  0  0  0  0  0  0  0  0  0
    6.8738   19.5146   37.8181 C   0  0  0  0  0  0  0  0  0  0  0  0
    6.1994   18.8134   38.8092 C   0  0  0  0  0  0  0  0  0  0  0  0
    6.2974   17.4945   38.8657 N   0  0  0  0  0  0  0  0  0  0  0  0
    7.0491   16.8570   37.9560 C   0  0  0  0  0  0  0  0  0  0  0  0
    8.2039   20.5669   35.8999 H   0  0  0  0  0  0  0  0  0  0  0  0
    8.8599   19.0439   35.2419 H   0  0  0  0  0  0  0  0  0  0  0  0
    5.6497   14.5963   42.9579 O   0  0  0  0  0  0  0  0  0  0  0  0
    6.8367   14.4828   42.1679 C   0  0  0  0  0  0  0  0  0  0  0  0
    5.0255   15.1558   42.5110 H   0  0  0  0  0  0  0  0  0  0  0  0
 23 22  1  0  0  0
 23  1  1  0  0  0
  1  2  1  0  0  0
  1  3  1  0  0  0
  2  7  1  0  0  0
  3  4  1  0  0  0
  3  5  1  0  0  0
  5  6  1  0  0  0
  7  5  1  0  0  0
  7 10  1  0  0  0
 10 11  1  0  0  0
 10 19  1  0  0  0
 11 12  2  0  0  0
 12 13  1  0  0  0
 13 14  2  0  0  0
 13 19  1  0  0  0
 14 15  1  0  0  0
 14 16  1  0  0  0
 16 17  2  0  0  0
 17 18  1  0  0  0
 18 19  2  0  0  0
 22 24  1  0  0  0
  4  8  1  0  0  0
  6  9  1  0  0  0
 15 20  1  0  0  0
 15 21  1  0  0  0
M  END
> <minimizedAffinity>
-6.80208

$$$$
1add_ligand


 24 26  0  0  0  0  0  0  0  0999 V2000
    5.3084   19.5936   38.1675 C   0  0  0  0  0  0  0  0  0  0  0  0
    6.0445   18.8286   39.1321 O   0  0  0  0  0  0  0  0  0  0  0  0
    5.1101   18.6587   36.9716 C   0  0  0  0  0  0  0  0  0  0  0  0
    4.9687   19.3435   35.7215 O   0  0  0  0  0  0  0  0  0  0  0  0
    6.3501   17.7833   37.0051 C   0  0  0  0  0  0  0  0  0  0  0  0
    7.3224   18.5246   36.2855 O   0  0  0  0  0  0  0  0  0  0  0  0
    6.8304   17.8431   38.4552 C   0  0  0  0  0  0  0  0  0  0  0  0
    5.7500   19.8571   35.5528 H   0  0  0  0  0  0  0  0  0  0  0  0
    7.0143   18.6719   35.3990 H   0  0  0  0  0  0  0  0  0  0  0  0
    6.7870   16.5633   39.0364 N   0  0  0  0  0  0  0  0  0  0  0  0
    6.2097   16.2093   40.1985 C   0  0  0  0  0  0  0  0  0  0  0  0
    6.3012   14.8875   40.4074 N   0  0  0  0  0  0  0  0  0  0  0  0
    6.8841   14.3976   39.2812 C   0  0  0  0  0  0  0  0  0  0  0  0
    7.1967   13.1247   38.8920 C   0  0  0  0  0  0  0  0  0  0  0  0
    6.8712   12.0620   39.6329 N   0  0  0  0  0  0  0  0  0  0  0  0
    7.8613   12.9587   37.6976 C   0  0  0  0  0  0  0  0  0  0  0  0
    8.2011   14.0542   36.9145 C   0  0  0  0  0  0  0  0  0  0  0  0
    7.8843   15.2749   37.3168 N   0  0  0  0  0  0  0  0  0  0  0  0
    7.2343   15.4301   38.4796 C   0  0  0  0  0  0  0  0  0  0  0  0
    7.1206   11.1153   39.3129 H   0  0  0  0  0  0  0  0  0  0  0  0
    6.3709   12.1894   40.5242 H   0  0  0  0  0  0  0  0  0  0  0  0
    2.8859   19.8484   37.9120 O   0  0  0  0  0  0  0  0  0  0  0  0
    4.0003   20.0868   38.7765 C   0  0  0  0  0  0  0  0  0  0  0  0
    3.0218   20.3035   37.0892 H   0  0  0  0  0  0  0  0  0  0  0  0
 23 22  1  0  0  0
 23  1  1  0  0  0
  1  2  1  0  0  0
  1  3  1  0  0  0
  2  7  1  0  0  0
  3  4  1  0  0  0
  3  5  1  0  0  0
  5  6  1  0  0  0
  7  5  1  0  0  0
  7 10  1  0  0  0
 10 11  1  0  0  0
 10 19  1  0  0  0
 11 12  2  0  0  0
 12 13  1  0  0  0
 13 14  2  0  0  0
 13 19  1  0  0  0
 14 15  1  0  0  0
 14 16  1  0  0  0
 16 17  2  0  0  0
 17 18  1  0  0  0
 18 19  2  0  0  0
 22 24  1  0  0  0
  4  8  1  0  0  0
  6  9  1  0  0  0
 15 20  1  0  0  0
 15 21  1  0  0  0
M  END
> <minimizedAffinity>
-6.76263

$$$$
1add_ligand


 24 26  0  0  0  0  0  0  0  0999 V2000
    8.3730   13.9902   41.1481 C   0  0  0  0  0  0  0  0  0  0  0  0
    7.6760   15.0330   40.4522 O   0  0  0  0  0  0  0  0  0  0  0  0
    9.0827   13.1788   40.0612 C   0  0  0  0  0  0  0  0  0  0  0  0
    9.3095   11.8103   40.4187 O   0  0  0  0  0  0  0  0  0  0  0  0
    8.1541   13.3098   38.8673 C   0  0  0  0  0  0  0  0  0  0  0  0
    7.2044   12.2710   39.0459 O   0  0  0  0  0  0  0  0  0  0  0  0
    7.3621   14.5911   39.1282 C   0  0  0  0  0  0  0  0  0  0  0  0
    8.4767   11.3866   40.5898 H   0  0  0  0  0  0  0  0  0  0  0  0
    7.6519   11.4332   39.0586 H   0  0  0  0  0  0  0  0  0  0  0  0
    7.6209   15.5378   38.1211 N   0  0  0  0  0  0  0  0  0  0  0  0
    8.2938   15.3498   36.9718 C   0  0  0  0  0  0  0  0  0  0  0  0
    8.2864   16.4565   36.2139 N   0  0  0  0  0  0  0  0  0  0  0  0
    7.4996   17.3349   36.8902 C   0  0  0  0  0  0  0  0  0  0  0  0
    7.0869   18.6055   36.5990 C   0  0  0  0  0  0  0  0  0  0  0  0
    7.3895   19.1958   35.4396 N   0  0  0  0  0  0  0  0  0  0  0  0
    6.3361   19.2731   37.5405 C   0  0  0  0  0  0  0  0  0  0  0  0
    6.0093   18.6696   38.7480 C   0  0  0  0  0  0  0  0  0  0  0  0
    6.4223   17.4377   39.0015 N   0  0  0  0  0  0  0  0  0  0  0  0
    7.1508   16.7914   38.0793 C   0  0  0  0  0  0  0  0  0  0  0  0
    7.0640   20.1543   35.2494 H   0  0  0  0  0  0  0  0  0  0  0  0
    7.9484   18.6924   34.7359 H   0  0  0  0  0  0  0  0  0  0  0  0
   10.6674   14.1329   41.9930 O   0  0  0  0  0  0  0  0  0  0  0  0
    9.3249   14.5910   42.1767 C   0  0  0  0  0  0  0  0  0  0  0  0
   10.6929   13.1873   42.0801 H   0  0  0  0  0  0  0  0  0  0  0  0
 23 22  1  0  0  0
 23  1  1  0  0  0
  1  2  1  0  0  0
  1  3  1  0  0  0
  2  7  1  0  0  0
  3  4  1  0  0  0
  3  5  1  0  0  0
  5  6  1  0  0  0
  7  5  1  0  0  0
  7 10  1  0  0  0
 10 11  1  0  0  0
 10 19  1  0  0  0
 11 12  2  0  0  0
 12 13  1  0  0  0
 13 14  2  0  0  0
 13 19  1  0  0  0
 14 15  1  0  0  0
 14 16  1  0  0  0
 16 17  2  0  0  0
 17 18  1  0  0  0
 18 19  2  0  0  0
 22 24  1  0  0  0
  4  8  1  0  0  0
  6  9  1  0  0  0
 15 20  1  0  0  0
 15 21  1  0  0  0
M  END
> <minimizedAffinity>
-6.68456

$$$$
