1adl_ligand


 22 21  0  0  0  0  0  0  0  0999 V2000
  -45.1220   66.3782   -5.3139 C   0  0  0  0  0  0  0  0  0  0  0  0
  -44.0020   66.4004   -6.1377 C   0  0  0  0  0  0  0  0  0  0  0  0
  -45.6150   67.5952   -4.6995 C   0  0  0  0  0  0  0  0  0  0  0  0
  -46.6546   69.5561   -5.7887 C   0  0  0  0  0  0  0  0  0  0  0  0
  -46.6969   68.2090   -5.4495 C   0  0  0  0  0  0  0  0  0  0  0  0
  -45.5248   70.3718   -5.3988 C   0  0  0  0  0  0  0  0  0  0  0  0
  -45.1444   71.3999   -6.4480 C   0  0  0  0  0  0  0  0  0  0  0  0
  -46.3088   72.3244   -6.7306 C   0  0  0  0  0  0  0  0  0  0  0  0
  -46.0686   73.7384   -6.2733 C   0  0  0  0  0  0  0  0  0  0  0  0
  -46.4142   74.0881   -5.1185 O   0  0  0  0  0  0  0  0  0  0  0  0
  -45.5317   74.5302   -7.0803 O   0  0  0  0  0  0  0  0  0  0  0  0
  -43.2900   67.6403   -6.4099 C   0  0  0  0  0  0  0  0  0  0  0  0
  -42.7434   67.6914   -7.7559 C   0  0  0  0  0  0  0  0  0  0  0  0
  -43.5415   68.0139   -8.8533 C   0  0  0  0  0  0  0  0  0  0  0  0
  -44.9538   68.3145   -8.6981 C   0  0  0  0  0  0  0  0  0  0  0  0
  -45.4032   69.3938   -9.5673 C   0  0  0  0  0  0  0  0  0  0  0  0
  -46.7630   69.6277   -9.7721 C   0  0  0  0  0  0  0  0  0  0  0  0
  -47.7615   68.7971   -9.1261 C   0  0  0  0  0  0  0  0  0  0  0  0
  -49.1115   69.4891   -8.9752 C   0  0  0  0  0  0  0  0  0  0  0  0
  -48.9432   70.9927   -8.8505 C   0  0  0  0  0  0  0  0  0  0  0  0
  -49.7691   71.5525   -7.7027 C   0  0  0  0  0  0  0  0  0  0  0  0
  -50.7753   72.5568   -8.2066 C   0  0  0  0  0  0  0  0  0  0  0  0
  9 11  2  0  0  0
  9 10  2  0  0  0
  9  8  1  0  0  0
  8  7  1  0  0  0
  7  6  1  0  0  0
  6  4  1  0  0  0
  4  5  2  0  0  0
  5  3  1  0  0  0
  3  1  1  0  0  0
  1  2  2  0  0  0
  2 12  1  0  0  0
 12 13  1  0  0  0
 13 14  2  0  0  0
 14 15  1  0  0  0
 15 16  1  0  0  0
 16 17  2  0  0  0
 17 18  1  0  0  0
 18 19  1  0  0  0
 19 20  1  0  0  0
 20 21  1  0  0  0
 21 22  1  0  0  0
M  CHG 1   9  -1
M  END
> <minimizedAffinity>
-5.76463

$$$$
1adl_ligand


 22 21  0  0  0  0  0  0  0  0999 V2000
  -50.2476   73.0449   -7.3803 C   0  0  0  0  0  0  0  0  0  0  0  0
  -51.2447   72.6413   -8.2616 C   0  0  0  0  0  0  0  0  0  0  0  0
  -48.8720   72.6325   -7.5777 C   0  0  0  0  0  0  0  0  0  0  0  0
  -47.5905   70.5970   -7.0057 C   0  0  0  0  0  0  0  0  0  0  0  0
  -48.4404   71.6275   -6.6219 C   0  0  0  0  0  0  0  0  0  0  0  0
  -47.1189   70.5101   -8.3709 C   0  0  0  0  0  0  0  0  0  0  0  0
  -46.3388   69.2389   -8.6499 C   0  0  0  0  0  0  0  0  0  0  0  0
  -46.4563   68.2788   -7.4860 C   0  0  0  0  0  0  0  0  0  0  0  0
  -46.1683   66.8503   -7.8635 C   0  0  0  0  0  0  0  0  0  0  0  0
  -45.6962   66.5870   -8.9961 O   0  0  0  0  0  0  0  0  0  0  0  0
  -46.4242   65.9605   -7.0212 O   0  0  0  0  0  0  0  0  0  0  0  0
  -50.9425   71.7953   -9.4065 C   0  0  0  0  0  0  0  0  0  0  0  0
  -51.7340   72.1310  -10.5787 C   0  0  0  0  0  0  0  0  0  0  0  0
  -51.8673   71.2421  -11.6453 C   0  0  0  0  0  0  0  0  0  0  0  0
  -51.2220   69.9412  -11.6298 C   0  0  0  0  0  0  0  0  0  0  0  0
  -51.6816   69.0670  -12.7007 C   0  0  0  0  0  0  0  0  0  0  0  0
  -50.7734   68.3339  -13.4647 C   0  0  0  0  0  0  0  0  0  0  0  0
  -49.3482   68.4294  -13.2118 C   0  0  0  0  0  0  0  0  0  0  0  0
  -48.7712   67.1831  -12.5502 C   0  0  0  0  0  0  0  0  0  0  0  0
  -48.3592   67.4671  -11.1169 C   0  0  0  0  0  0  0  0  0  0  0  0
  -49.3246   66.8377  -10.1245 C   0  0  0  0  0  0  0  0  0  0  0  0
  -49.8112   67.8604   -9.1282 C   0  0  0  0  0  0  0  0  0  0  0  0
  9 11  2  0  0  0
  9 10  2  0  0  0
  9  8  1  0  0  0
  8  7  1  0  0  0
  7  6  1  0  0  0
  6  4  1  0  0  0
  4  5  2  0  0  0
  5  3  1  0  0  0
  3  1  1  0  0  0
  1  2  2  0  0  0
  2 12  1  0  0  0
 12 13  1  0  0  0
 13 14  2  0  0  0
 14 15  1  0  0  0
 15 16  1  0  0  0
 16 17  2  0  0  0
 17 18  1  0  0  0
 18 19  1  0  0  0
 19 20  1  0  0  0
 20 21  1  0  0  0
 21 22  1  0  0  0
M  CHG 1   9  -1
M  END
> <minimizedAffinity>
-5.74683

$$$$
1adl_ligand


 22 21  0  0  0  0  0  0  0  0999 V2000
  -51.8306   72.1185  -10.0368 C   0  0  0  0  0  0  0  0  0  0  0  0
  -51.7910   71.2524  -11.1240 C   0  0  0  0  0  0  0  0  0  0  0  0
  -51.0440   71.8533   -8.8483 C   0  0  0  0  0  0  0  0  0  0  0  0
  -50.0885   73.0380   -6.9000 C   0  0  0  0  0  0  0  0  0  0  0  0
  -51.0328   72.9682   -7.9174 C   0  0  0  0  0  0  0  0  0  0  0  0
  -49.0957   71.9957   -6.7530 C   0  0  0  0  0  0  0  0  0  0  0  0
  -47.6745   72.5272   -6.7376 C   0  0  0  0  0  0  0  0  0  0  0  0
  -47.3396   73.1824   -8.0601 C   0  0  0  0  0  0  0  0  0  0  0  0
  -45.9650   73.7955   -8.0875 C   0  0  0  0  0  0  0  0  0  0  0  0
  -45.6043   74.5607   -7.1604 O   0  0  0  0  0  0  0  0  0  0  0  0
  -45.2224   73.5217   -9.0571 O   0  0  0  0  0  0  0  0  0  0  0  0
  -50.9626   70.0560  -11.1057 C   0  0  0  0  0  0  0  0  0  0  0  0
  -50.9864   69.3357  -12.3682 C   0  0  0  0  0  0  0  0  0  0  0  0
  -50.8553   67.9480  -12.4164 C   0  0  0  0  0  0  0  0  0  0  0  0
  -50.6911   67.1621  -11.2063 C   0  0  0  0  0  0  0  0  0  0  0  0
  -49.3372   66.6501  -11.0414 C   0  0  0  0  0  0  0  0  0  0  0  0
  -48.5801   66.9796   -9.9171 C   0  0  0  0  0  0  0  0  0  0  0  0
  -49.1239   67.8445   -8.8873 C   0  0  0  0  0  0  0  0  0  0  0  0
  -48.1843   68.9807   -8.4999 C   0  0  0  0  0  0  0  0  0  0  0  0
  -47.7247   69.7506   -9.7250 C   0  0  0  0  0  0  0  0  0  0  0  0
  -46.2336   70.0451   -9.6710 C   0  0  0  0  0  0  0  0  0  0  0  0
  -45.6517   69.6222   -8.3452 C   0  0  0  0  0  0  0  0  0  0  0  0
  9 11  2  0  0  0
  9 10  2  0  0  0
  9  8  1  0  0  0
  8  7  1  0  0  0
  7  6  1  0  0  0
  6  4  1  0  0  0
  4  5  2  0  0  0
  5  3  1  0  0  0
  3  1  1  0  0  0
  1  2  2  0  0  0
  2 12  1  0  0  0
 12 13  1  0  0  0
 13 14  2  0  0  0
 14 15  1  0  0  0
 15 16  1  0  0  0
 16 17  2  0  0  0
 17 18  1  0  0  0
 18 19  1  0  0  0
 19 20  1  0  0  0
 20 21  1  0  0  0
 21 22  1  0  0  0
M  CHG 1   9  -1
M  END
> <minimizedAffinity>
-5.71951

$$$$
1adl_ligand


 22 21  0  0  0  0  0  0  0  0999 V2000
  -44.1094   72.3706   -9.3779 C   0  0  0  0  0  0  0  0  0  0  0  0
  -44.5886   73.5805   -8.8877 C   0  0  0  0  0  0  0  0  0  0  0  0
  -44.8231   71.1340   -9.1271 C   0  0  0  0  0  0  0  0  0  0  0  0
  -43.6392   69.5368   -7.6574 C   0  0  0  0  0  0  0  0  0  0  0  0
  -43.9372   69.9993   -8.9337 C   0  0  0  0  0  0  0  0  0  0  0  0
  -44.2114   70.1818   -6.4953 C   0  0  0  0  0  0  0  0  0  0  0  0
  -44.5454   69.2085   -5.3802 C   0  0  0  0  0  0  0  0  0  0  0  0
  -44.5832   67.7906   -5.9079 C   0  0  0  0  0  0  0  0  0  0  0  0
  -45.9247   67.1292   -5.7372 C   0  0  0  0  0  0  0  0  0  0  0  0
  -46.7397   67.5790   -4.8954 O   0  0  0  0  0  0  0  0  0  0  0  0
  -46.1783   66.1305   -6.4476 O   0  0  0  0  0  0  0  0  0  0  0  0
  -45.8170   73.6461   -8.1100 C   0  0  0  0  0  0  0  0  0  0  0  0
  -45.5745   73.6871   -6.6773 C   0  0  0  0  0  0  0  0  0  0  0  0
  -46.4748   73.1276   -5.7709 C   0  0  0  0  0  0  0  0  0  0  0  0
  -47.6935   72.4778   -6.2200 C   0  0  0  0  0  0  0  0  0  0  0  0
  -47.6147   71.0242   -6.1659 C   0  0  0  0  0  0  0  0  0  0  0  0
  -47.8345   70.2532   -7.3075 C   0  0  0  0  0  0  0  0  0  0  0  0
  -48.1512   70.8832   -8.5752 C   0  0  0  0  0  0  0  0  0  0  0  0
  -49.3798   70.2860   -9.2519 C   0  0  0  0  0  0  0  0  0  0  0  0
  -50.6535   70.7086   -8.5421 C   0  0  0  0  0  0  0  0  0  0  0  0
  -51.0666   72.1195   -8.9317 C   0  0  0  0  0  0  0  0  0  0  0  0
  -50.9920   73.0468   -7.7445 C   0  0  0  0  0  0  0  0  0  0  0  0
  9 11  2  0  0  0
  9 10  2  0  0  0
  9  8  1  0  0  0
  8  7  1  0  0  0
  7  6  1  0  0  0
  6  4  1  0  0  0
  4  5  2  0  0  0
  5  3  1  0  0  0
  3  1  1  0  0  0
  1  2  2  0  0  0
  2 12  1  0  0  0
 12 13  1  0  0  0
 13 14  2  0  0  0
 14 15  1  0  0  0
 15 16  1  0  0  0
 16 17  2  0  0  0
 17 18  1  0  0  0
 18 19  1  0  0  0
 19 20  1  0  0  0
 20 21  1  0  0  0
 21 22  1  0  0  0
M  CHG 1   9  -1
M  END
> <minimizedAffinity>
-5.66049

$$$$
1adl_ligand


 22 21  0  0  0  0  0  0  0  0999 V2000
  -49.3332   72.3877   -6.1399 C   0  0  0  0  0  0  0  0  0  0  0  0
  -50.2164   72.7164   -7.1625 C   0  0  0  0  0  0  0  0  0  0  0  0
  -48.0742   71.7302   -6.4301 C   0  0  0  0  0  0  0  0  0  0  0  0
  -46.1104   70.7235   -5.3155 C   0  0  0  0  0  0  0  0  0  0  0  0
  -47.3737   71.2972   -5.2337 C   0  0  0  0  0  0  0  0  0  0  0  0
  -45.4698   70.5493   -6.6012 C   0  0  0  0  0  0  0  0  0  0  0  0
  -45.6575   69.1570   -7.1744 C   0  0  0  0  0  0  0  0  0  0  0  0
  -45.8598   68.1494   -6.0634 C   0  0  0  0  0  0  0  0  0  0  0  0
  -45.7529   66.7221   -6.5297 C   0  0  0  0  0  0  0  0  0  0  0  0
  -45.9832   65.7846   -5.7278 O   0  0  0  0  0  0  0  0  0  0  0  0
  -45.4227   66.5195   -7.7199 O   0  0  0  0  0  0  0  0  0  0  0  0
  -49.9083   72.4130   -8.5521 C   0  0  0  0  0  0  0  0  0  0  0  0
  -50.7892   71.4037   -9.1164 C   0  0  0  0  0  0  0  0  0  0  0  0
  -50.3240   70.1278   -9.4342 C   0  0  0  0  0  0  0  0  0  0  0  0
  -48.9387   69.7519   -9.2132 C   0  0  0  0  0  0  0  0  0  0  0  0
  -48.7956   68.4117   -8.6603 C   0  0  0  0  0  0  0  0  0  0  0  0
  -48.3892   67.3463   -9.4638 C   0  0  0  0  0  0  0  0  0  0  0  0
  -48.1037   67.5492  -10.8715 C   0  0  0  0  0  0  0  0  0  0  0  0
  -49.0102   66.7386  -11.7908 C   0  0  0  0  0  0  0  0  0  0  0  0
  -50.2145   67.5535  -12.2270 C   0  0  0  0  0  0  0  0  0  0  0  0
  -49.7949   68.8465  -12.9090 C   0  0  0  0  0  0  0  0  0  0  0  0
  -51.0010   69.6750  -13.2750 C   0  0  0  0  0  0  0  0  0  0  0  0
  9 11  2  0  0  0
  9 10  2  0  0  0
  9  8  1  0  0  0
  8  7  1  0  0  0
  7  6  1  0  0  0
  6  4  1  0  0  0
  4  5  2  0  0  0
  5  3  1  0  0  0
  3  1  1  0  0  0
  1  2  2  0  0  0
  2 12  1  0  0  0
 12 13  1  0  0  0
 13 14  2  0  0  0
 14 15  1  0  0  0
 15 16  1  0  0  0
 16 17  2  0  0  0
 17 18  1  0  0  0
 18 19  1  0  0  0
 19 20  1  0  0  0
 20 21  1  0  0  0
 21 22  1  0  0  0
M  CHG 1   9  -1
M  END
> <minimizedAffinity>
-5.65895

$$$$
1adl_ligand


 22 21  0  0  0  0  0  0  0  0999 V2000
  -47.5633   73.3141   -7.4956 C   0  0  0  0  0  0  0  0  0  0  0  0
  -46.8305   73.5102   -8.6611 C   0  0  0  0  0  0  0  0  0  0  0  0
  -46.9016   72.9700   -6.2526 C   0  0  0  0  0  0  0  0  0  0  0  0
  -46.7563   70.6619   -5.3785 C   0  0  0  0  0  0  0  0  0  0  0  0
  -47.4955   71.8187   -5.5958 C   0  0  0  0  0  0  0  0  0  0  0  0
  -45.3754   70.5874   -5.8044 C   0  0  0  0  0  0  0  0  0  0  0  0
  -44.7173   69.2652   -5.4568 C   0  0  0  0  0  0  0  0  0  0  0  0
  -45.0980   68.2026   -6.4649 C   0  0  0  0  0  0  0  0  0  0  0  0
  -45.9624   67.1156   -5.8839 C   0  0  0  0  0  0  0  0  0  0  0  0
  -46.2191   66.0922   -6.5635 O   0  0  0  0  0  0  0  0  0  0  0  0
  -46.4092   67.2804   -4.7265 O   0  0  0  0  0  0  0  0  0  0  0  0
  -45.3812   73.3773   -8.6724 C   0  0  0  0  0  0  0  0  0  0  0  0
  -44.8494   73.1277  -10.0020 C   0  0  0  0  0  0  0  0  0  0  0  0
  -44.3628   71.8725  -10.3669 C   0  0  0  0  0  0  0  0  0  0  0  0
  -44.3682   70.7596   -9.4339 C   0  0  0  0  0  0  0  0  0  0  0  0
  -44.9012   69.5346  -10.0148 C   0  0  0  0  0  0  0  0  0  0  0  0
  -46.2415   69.1872   -9.8455 C   0  0  0  0  0  0  0  0  0  0  0  0
  -47.1349   70.0378   -9.0822 C   0  0  0  0  0  0  0  0  0  0  0  0
  -48.2822   69.2730   -8.4320 C   0  0  0  0  0  0  0  0  0  0  0  0
  -49.4994   69.2402   -9.3387 C   0  0  0  0  0  0  0  0  0  0  0  0
  -50.1142   70.6223   -9.4963 C   0  0  0  0  0  0  0  0  0  0  0  0
  -50.4481   71.2168   -8.1509 C   0  0  0  0  0  0  0  0  0  0  0  0
  9 11  2  0  0  0
  9 10  2  0  0  0
  9  8  1  0  0  0
  8  7  1  0  0  0
  7  6  1  0  0  0
  6  4  1  0  0  0
  4  5  2  0  0  0
  5  3  1  0  0  0
  3  1  1  0  0  0
  1  2  2  0  0  0
  2 12  1  0  0  0
 12 13  1  0  0  0
 13 14  2  0  0  0
 14 15  1  0  0  0
 15 16  1  0  0  0
 16 17  2  0  0  0
 17 18  1  0  0  0
 18 19  1  0  0  0
 19 20  1  0  0  0
 20 21  1  0  0  0
 21 22  1  0  0  0
M  CHG 1   9  -1
M  END
> <minimizedAffinity>
-5.64861

$$$$
1adl_ligand


 22 21  0  0  0  0  0  0  0  0999 V2000
  -51.5307   71.6598   -9.5517 C   0  0  0  0  0  0  0  0  0  0  0  0
  -50.7022   70.7251   -8.9404 C   0  0  0  0  0  0  0  0  0  0  0  0
  -51.5688   71.7853  -10.9954 C   0  0  0  0  0  0  0  0  0  0  0  0
  -52.5192   70.2983  -12.7268 C   0  0  0  0  0  0  0  0  0  0  0  0
  -52.6917   71.0852  -11.5943 C   0  0  0  0  0  0  0  0  0  0  0  0
  -51.2105   70.1625  -13.3288 C   0  0  0  0  0  0  0  0  0  0  0  0
  -50.6497   68.7568  -13.2201 C   0  0  0  0  0  0  0  0  0  0  0  0
  -49.1430   68.7750  -13.3606 C   0  0  0  0  0  0  0  0  0  0  0  0
  -48.4716   67.5968  -12.7070 C   0  0  0  0  0  0  0  0  0  0  0  0
  -49.1232   66.5451  -12.4958 O   0  0  0  0  0  0  0  0  0  0  0  0
  -47.2683   67.7153  -12.3838 O   0  0  0  0  0  0  0  0  0  0  0  0
  -49.8493   69.8452   -9.7256 C   0  0  0  0  0  0  0  0  0  0  0  0
  -50.1276   68.4375   -9.4933 C   0  0  0  0  0  0  0  0  0  0  0  0
  -49.1410   67.5681   -9.0283 C   0  0  0  0  0  0  0  0  0  0  0  0
  -47.7926   68.0327   -8.7543 C   0  0  0  0  0  0  0  0  0  0  0  0
  -47.4850   68.0744   -7.3310 C   0  0  0  0  0  0  0  0  0  0  0  0
  -46.8170   69.1658   -6.7755 C   0  0  0  0  0  0  0  0  0  0  0  0
  -46.4095   70.2835   -7.6055 C   0  0  0  0  0  0  0  0  0  0  0  0
  -47.4373   71.4087   -7.6440 C   0  0  0  0  0  0  0  0  0  0  0  0
  -48.1314   71.5600   -6.3023 C   0  0  0  0  0  0  0  0  0  0  0  0
  -48.4674   73.0141   -6.0097 C   0  0  0  0  0  0  0  0  0  0  0  0
  -49.9127   73.3048   -6.3290 C   0  0  0  0  0  0  0  0  0  0  0  0
  9 11  2  0  0  0
  9 10  2  0  0  0
  9  8  1  0  0  0
  8  7  1  0  0  0
  7  6  1  0  0  0
  6  4  1  0  0  0
  4  5  2  0  0  0
  5  3  1  0  0  0
  3  1  1  0  0  0
  1  2  2  0  0  0
  2 12  1  0  0  0
 12 13  1  0  0  0
 13 14  2  0  0  0
 14 15  1  0  0  0
 15 16  1  0  0  0
 16 17  2  0  0  0
 17 18  1  0  0  0
 18 19  1  0  0  0
 19 20  1  0  0  0
 20 21  1  0  0  0
 21 22  1  0  0  0
M  CHG 1   9  -1
M  END
> <minimizedAffinity>
-5.60422

$$$$
1adl_ligand


 22 21  0  0  0  0  0  0  0  0999 V2000
  -43.2106   67.0119   -7.5337 C   0  0  0  0  0  0  0  0  0  0  0  0
  -43.6460   66.7615   -6.2370 C   0  0  0  0  0  0  0  0  0  0  0  0
  -44.1128   66.8699   -8.6594 C   0  0  0  0  0  0  0  0  0  0  0  0
  -46.0834   68.2076   -9.3226 C   0  0  0  0  0  0  0  0  0  0  0  0
  -44.7213   68.1270   -9.0583 C   0  0  0  0  0  0  0  0  0  0  0  0
  -46.9208   67.0337   -9.2022 C   0  0  0  0  0  0  0  0  0  0  0  0
  -48.2227   67.1514   -9.9728 C   0  0  0  0  0  0  0  0  0  0  0  0
  -48.0240   67.9764  -11.2258 C   0  0  0  0  0  0  0  0  0  0  0  0
  -48.3122   67.2132  -12.4910 C   0  0  0  0  0  0  0  0  0  0  0  0
  -47.3780   66.6347  -13.0974 O   0  0  0  0  0  0  0  0  0  0  0  0
  -49.4935   67.1917  -12.9041 O   0  0  0  0  0  0  0  0  0  0  0  0
  -45.0158   66.3503   -5.9673 C   0  0  0  0  0  0  0  0  0  0  0  0
  -45.5075   66.8354   -4.6883 C   0  0  0  0  0  0  0  0  0  0  0  0
  -46.2775   67.9948   -4.5973 C   0  0  0  0  0  0  0  0  0  0  0  0
  -46.6229   68.7668   -5.7779 C   0  0  0  0  0  0  0  0  0  0  0  0
  -46.7004   70.1981   -5.5174 C   0  0  0  0  0  0  0  0  0  0  0  0
  -45.5876   71.0193   -5.6993 C   0  0  0  0  0  0  0  0  0  0  0  0
  -44.3250   70.4642   -6.1489 C   0  0  0  0  0  0  0  0  0  0  0  0
  -43.7744   71.1546   -7.3915 C   0  0  0  0  0  0  0  0  0  0  0  0
  -44.7288   72.2252   -7.8892 C   0  0  0  0  0  0  0  0  0  0  0  0
  -45.3338   71.8511   -9.2335 C   0  0  0  0  0  0  0  0  0  0  0  0
  -44.3136   71.9854  -10.3362 C   0  0  0  0  0  0  0  0  0  0  0  0
  9 11  2  0  0  0
  9 10  2  0  0  0
  9  8  1  0  0  0
  8  7  1  0  0  0
  7  6  1  0  0  0
  6  4  1  0  0  0
  4  5  2  0  0  0
  5  3  1  0  0  0
  3  1  1  0  0  0
  1  2  2  0  0  0
  2 12  1  0  0  0
 12 13  1  0  0  0
 13 14  2  0  0  0
 14 15  1  0  0  0
 15 16  1  0  0  0
 16 17  2  0  0  0
 17 18  1  0  0  0
 18 19  1  0  0  0
 19 20  1  0  0  0
 20 21  1  0  0  0
 21 22  1  0  0  0
M  CHG 1   9  -1
M  END
> <minimizedAffinity>
-5.58560

$$$$
1adl_ligand


 22 21  0  0  0  0  0  0  0  0999 V2000
  -50.6686   71.6259   -9.3550 C   0  0  0  0  0  0  0  0  0  0  0  0
  -50.6422   72.7687   -8.5631 C   0  0  0  0  0  0  0  0  0  0  0  0
  -50.5252   70.3102   -8.7635 C   0  0  0  0  0  0  0  0  0  0  0  0
  -49.0522   68.3866   -9.2556 C   0  0  0  0  0  0  0  0  0  0  0  0
  -49.2063   69.7381   -8.9704 C   0  0  0  0  0  0  0  0  0  0  0  0
  -50.2102   67.5245   -9.3528 C   0  0  0  0  0  0  0  0  0  0  0  0
  -50.5774   67.1824  -10.7848 C   0  0  0  0  0  0  0  0  0  0  0  0
  -49.4607   66.4046  -11.4468 C   0  0  0  0  0  0  0  0  0  0  0  0
  -48.8260   67.1396  -12.5970 C   0  0  0  0  0  0  0  0  0  0  0  0
  -49.5481   67.7496  -13.4226 O   0  0  0  0  0  0  0  0  0  0  0  0
  -47.5786   67.1065  -12.6945 O   0  0  0  0  0  0  0  0  0  0  0  0
  -50.4707   72.6830   -7.1204 C   0  0  0  0  0  0  0  0  0  0  0  0
  -49.3846   73.5168   -6.6324 C   0  0  0  0  0  0  0  0  0  0  0  0
  -48.2229   72.9592   -6.0986 C   0  0  0  0  0  0  0  0  0  0  0  0
  -48.0476   71.5203   -6.0091 C   0  0  0  0  0  0  0  0  0  0  0  0
  -47.0123   71.1327   -5.0603 C   0  0  0  0  0  0  0  0  0  0  0  0
  -46.1628   70.0591   -5.3280 C   0  0  0  0  0  0  0  0  0  0  0  0
  -46.2946   69.3010   -6.5576 C   0  0  0  0  0  0  0  0  0  0  0  0
  -45.1898   69.5959   -7.5659 C   0  0  0  0  0  0  0  0  0  0  0  0
  -45.7079   70.4500   -8.7090 C   0  0  0  0  0  0  0  0  0  0  0  0
  -45.3755   71.9195   -8.5017 C   0  0  0  0  0  0  0  0  0  0  0  0
  -46.3613   72.7996   -9.2288 C   0  0  0  0  0  0  0  0  0  0  0  0
  9 11  2  0  0  0
  9 10  2  0  0  0
  9  8  1  0  0  0
  8  7  1  0  0  0
  7  6  1  0  0  0
  6  4  1  0  0  0
  4  5  2  0  0  0
  5  3  1  0  0  0
  3  1  1  0  0  0
  1  2  2  0  0  0
  2 12  1  0  0  0
 12 13  1  0  0  0
 13 14  2  0  0  0
 14 15  1  0  0  0
 15 16  1  0  0  0
 16 17  2  0  0  0
 17 18  1  0  0  0
 18 19  1  0  0  0
 19 20  1  0  0  0
 20 21  1  0  0  0
 21 22  1  0  0  0
M  CHG 1   9  -1
M  END
> <minimizedAffinity>
-5.58223

$$$$
1adl_ligand


 22 21  0  0  0  0  0  0  0  0999 V2000
  -45.1450   70.0545  -10.1924 C   0  0  0  0  0  0  0  0  0  0  0  0
  -43.8852   70.2726   -9.6455 C   0  0  0  0  0  0  0  0  0  0  0  0
  -45.9614   68.9400   -9.7532 C   0  0  0  0  0  0  0  0  0  0  0  0
  -48.1502   68.4750   -8.7019 C   0  0  0  0  0  0  0  0  0  0  0  0
  -47.1064   69.3552   -8.9620 C   0  0  0  0  0  0  0  0  0  0  0  0
  -48.1108   67.1235   -9.2172 C   0  0  0  0  0  0  0  0  0  0  0  0
  -49.2724   66.8059  -10.1403 C   0  0  0  0  0  0  0  0  0  0  0  0
  -49.4049   67.8681  -11.2102 C   0  0  0  0  0  0  0  0  0  0  0  0
  -48.9106   67.4173  -12.5587 C   0  0  0  0  0  0  0  0  0  0  0  0
  -47.8090   66.8235  -12.6531 O   0  0  0  0  0  0  0  0  0  0  0  0
  -49.6258   67.6646  -13.5557 O   0  0  0  0  0  0  0  0  0  0  0  0
  -43.3461   69.3935   -8.6185 C   0  0  0  0  0  0  0  0  0  0  0  0
  -42.3663   68.4544   -9.1393 C   0  0  0  0  0  0  0  0  0  0  0  0
  -42.5042   67.0795   -8.9496 C   0  0  0  0  0  0  0  0  0  0  0  0
  -43.6345   66.5265   -8.2244 C   0  0  0  0  0  0  0  0  0  0  0  0
  -43.3713   66.3651   -6.8007 C   0  0  0  0  0  0  0  0  0  0  0  0
  -44.3897   66.5311   -5.8620 C   0  0  0  0  0  0  0  0  0  0  0  0
  -45.7350   66.8729   -6.2835 C   0  0  0  0  0  0  0  0  0  0  0  0
  -46.3068   68.0787   -5.5466 C   0  0  0  0  0  0  0  0  0  0  0  0
  -45.2949   69.2085   -5.4810 C   0  0  0  0  0  0  0  0  0  0  0  0
  -45.9770   70.5595   -5.3314 C   0  0  0  0  0  0  0  0  0  0  0  0
  -45.5740   71.4898   -6.4483 C   0  0  0  0  0  0  0  0  0  0  0  0
  9 11  2  0  0  0
  9 10  2  0  0  0
  9  8  1  0  0  0
  8  7  1  0  0  0
  7  6  1  0  0  0
  6  4  1  0  0  0
  4  5  2  0  0  0
  5  3  1  0  0  0
  3  1  1  0  0  0
  1  2  2  0  0  0
  2 12  1  0  0  0
 12 13  1  0  0  0
 13 14  2  0  0  0
 14 15  1  0  0  0
 15 16  1  0  0  0
 16 17  2  0  0  0
 17 18  1  0  0  0
 18 19  1  0  0  0
 19 20  1  0  0  0
 20 21  1  0  0  0
 21 22  1  0  0  0
M  CHG 1   9  -1
M  END
> <minimizedAffinity>
-5.50847

$$$$
