1cbr_ligand


 22 22  0  0  0  0  0  0  0  0999 V2000
    4.9596    4.7711   -9.3722 C   0  0  0  0  0  0  0  0  0  0  0  0
    4.6538    6.0434   -9.6530 C   0  0  0  0  0  0  0  0  0  0  0  0
    5.0119    2.7515  -10.9011 C   0  0  0  0  0  0  0  0  0  0  0  0
    5.9716    1.6535  -11.4172 C   0  0  0  0  0  0  0  0  0  0  0  0
    7.2492    2.1523  -12.0106 C   0  0  0  0  0  0  0  0  0  0  0  0
    8.0378    2.9877  -11.0602 C   0  0  0  0  0  0  0  0  0  0  0  0
    7.1764    3.9898  -10.2818 C   0  0  0  0  0  0  0  0  0  0  0  0
    5.8254    3.8435  -10.1310 C   0  0  0  0  0  0  0  0  0  0  0  0
    3.9958    2.0921   -9.9604 C   0  0  0  0  0  0  0  0  0  0  0  0
    4.2649    3.4089  -12.0932 C   0  0  0  0  0  0  0  0  0  0  0  0
    8.0691    5.0344   -9.6067 C   0  0  0  0  0  0  0  0  0  0  0  0
    3.8101    6.9170   -8.8689 C   0  0  0  0  0  0  0  0  0  0  0  0
    4.3620    7.5520   -7.8145 C   0  0  0  0  0  0  0  0  0  0  0  0
    2.3463    7.1411   -9.2691 C   0  0  0  0  0  0  0  0  0  0  0  0
    3.6317    8.4405   -6.9329 C   0  0  0  0  0  0  0  0  0  0  0  0
    3.9575    9.7362   -6.9167 C   0  0  0  0  0  0  0  0  0  0  0  0
    3.3038   10.6983   -6.0578 C   0  0  0  0  0  0  0  0  0  0  0  0
    4.0057   11.2439   -5.0331 C   0  0  0  0  0  0  0  0  0  0  0  0
    1.8332   11.0555   -6.3342 C   0  0  0  0  0  0  0  0  0  0  0  0
    3.5377   12.2260   -4.0443 C   0  0  0  0  0  0  0  0  0  0  0  0
    3.2743   11.8471   -2.8816 O   0  0  0  0  0  0  0  0  0  0  0  0
    3.4151   13.4239   -4.3851 O   0  0  0  0  0  0  0  0  0  0  0  0
  3  4  1  0  0  0
  3  8  1  0  0  0
  3  9  1  0  0  0
  3 10  1  0  0  0
  4  5  1  0  0  0
  5  6  1  0  0  0
  6  7  1  0  0  0
  7  8  2  0  0  0
  7 11  1  0  0  0
  8  1  1  0  0  0
  1  2  2  0  0  0
  2 12  1  0  0  0
 12 13  2  0  0  0
 12 14  1  0  0  0
 13 15  1  0  0  0
 15 16  2  0  0  0
 16 17  1  0  0  0
 17 18  2  0  0  0
 17 19  1  0  0  0
 18 20  1  0  0  0
 20 21  1  0  0  0
 20 22  2  0  0  0
M  CHG 1  21  -1
M  END
> <minimizedAffinity>
-9.10335

$$$$
1cbr_ligand


 22 22  0  0  0  0  0  0  0  0999 V2000
    5.2716    5.1757   -9.8659 C   0  0  0  0  0  0  0  0  0  0  0  0
    4.0236    5.1769   -9.3825 C   0  0  0  0  0  0  0  0  0  0  0  0
    7.3776    3.7764   -9.7056 C   0  0  0  0  0  0  0  0  0  0  0  0
    8.2472    2.8053  -10.5384 C   0  0  0  0  0  0  0  0  0  0  0  0
    7.5127    1.6541  -11.1453 C   0  0  0  0  0  0  0  0  0  0  0  0
    6.3967    2.0874  -12.0341 C   0  0  0  0  0  0  0  0  0  0  0  0
    5.5629    3.2295  -11.4404 C   0  0  0  0  0  0  0  0  0  0  0  0
    6.0305    4.0506  -10.4522 C   0  0  0  0  0  0  0  0  0  0  0  0
    8.1582    5.0852   -9.5320 C   0  0  0  0  0  0  0  0  0  0  0  0
    7.0793    3.1615   -8.3112 C   0  0  0  0  0  0  0  0  0  0  0  0
    4.2524    3.3799  -12.2173 C   0  0  0  0  0  0  0  0  0  0  0  0
    3.3177    6.3111   -8.8301 C   0  0  0  0  0  0  0  0  0  0  0  0
    3.6995    6.7665   -7.6192 C   0  0  0  0  0  0  0  0  0  0  0  0
    2.2036    6.9940   -9.6338 C   0  0  0  0  0  0  0  0  0  0  0  0
    3.0702    7.8808   -6.9392 C   0  0  0  0  0  0  0  0  0  0  0  0
    3.7151    9.0503   -6.8947 C   0  0  0  0  0  0  0  0  0  0  0  0
    3.1821   10.2144   -6.2230 C   0  0  0  0  0  0  0  0  0  0  0  0
    3.8452   10.7110   -5.1487 C   0  0  0  0  0  0  0  0  0  0  0  0
    1.8763   10.8361   -6.7474 C   0  0  0  0  0  0  0  0  0  0  0  0
    3.4788   11.8703   -4.3222 C   0  0  0  0  0  0  0  0  0  0  0  0
    3.3786   12.9967   -4.8567 O   0  0  0  0  0  0  0  0  0  0  0  0
    3.2708   11.7061   -3.0991 O   0  0  0  0  0  0  0  0  0  0  0  0
  3  4  1  0  0  0
  3  8  1  0  0  0
  3  9  1  0  0  0
  3 10  1  0  0  0
  4  5  1  0  0  0
  5  6  1  0  0  0
  6  7  1  0  0  0
  7  8  2  0  0  0
  7 11  1  0  0  0
  8  1  1  0  0  0
  1  2  2  0  0  0
  2 12  1  0  0  0
 12 13  2  0  0  0
 12 14  1  0  0  0
 13 15  1  0  0  0
 15 16  2  0  0  0
 16 17  1  0  0  0
 17 18  2  0  0  0
 17 19  1  0  0  0
 18 20  1  0  0  0
 20 21  1  0  0  0
 20 22  2  0  0  0
M  CHG 1  21  -1
M  END
> <minimizedAffinity>
-8.99548

$$$$
1cbr_ligand


 22 22  0  0  0  0  0  0  0  0999 V2000
    5.3722    4.6399   -9.2890 C   0  0  0  0  0  0  0  0  0  0  0  0
    4.5482    5.5541   -9.8147 C   0  0  0  0  0  0  0  0  0  0  0  0
    5.2461    2.2353  -10.0773 C   0  0  0  0  0  0  0  0  0  0  0  0
    6.1510    1.0639  -10.5263 C   0  0  0  0  0  0  0  0  0  0  0  0
    7.1130    1.3869  -11.6232 C   0  0  0  0  0  0  0  0  0  0  0  0
    8.0252    2.5140  -11.2756 C   0  0  0  0  0  0  0  0  0  0  0  0
    7.3043    3.6839  -10.5946 C   0  0  0  0  0  0  0  0  0  0  0  0
    6.0928    3.5469   -9.9759 C   0  0  0  0  0  0  0  0  0  0  0  0
    4.6564    1.8831   -8.7060 C   0  0  0  0  0  0  0  0  0  0  0  0
    4.0954    2.4413  -11.0995 C   0  0  0  0  0  0  0  0  0  0  0  0
    8.2041    4.9224  -10.5902 C   0  0  0  0  0  0  0  0  0  0  0  0
    3.8759    6.6161   -9.1004 C   0  0  0  0  0  0  0  0  0  0  0  0
    4.5946    7.3398   -8.2177 C   0  0  0  0  0  0  0  0  0  0  0  0
    2.4016    6.9278   -9.3877 C   0  0  0  0  0  0  0  0  0  0  0  0
    4.0466    8.4191   -7.4210 C   0  0  0  0  0  0  0  0  0  0  0  0
    4.6620    8.7502   -6.2821 C   0  0  0  0  0  0  0  0  0  0  0  0
    4.1823    9.7967   -5.4074 C   0  0  0  0  0  0  0  0  0  0  0  0
    3.6333   10.9089   -5.9572 C   0  0  0  0  0  0  0  0  0  0  0  0
    4.3249    9.6113   -3.8869 C   0  0  0  0  0  0  0  0  0  0  0  0
    3.0945   12.0854   -5.2596 C   0  0  0  0  0  0  0  0  0  0  0  0
    3.8680   12.8139   -4.5996 O   0  0  0  0  0  0  0  0  0  0  0  0
    1.8714   12.3368   -5.3428 O   0  0  0  0  0  0  0  0  0  0  0  0
  3  4  1  0  0  0
  3  8  1  0  0  0
  3  9  1  0  0  0
  3 10  1  0  0  0
  4  5  1  0  0  0
  5  6  1  0  0  0
  6  7  1  0  0  0
  7  8  2  0  0  0
  7 11  1  0  0  0
  8  1  1  0  0  0
  1  2  2  0  0  0
  2 12  1  0  0  0
 12 13  2  0  0  0
 12 14  1  0  0  0
 13 15  1  0  0  0
 15 16  2  0  0  0
 16 17  1  0  0  0
 17 18  2  0  0  0
 17 19  1  0  0  0
 18 20  1  0  0  0
 20 21  1  0  0  0
 20 22  2  0  0  0
M  CHG 1  21  -1
M  END
> <minimizedAffinity>
-8.72640

$$$$
1cbr_ligand


 22 22  0  0  0  0  0  0  0  0999 V2000
    4.7508    8.7550   -5.5469 C   0  0  0  0  0  0  0  0  0  0  0  0
    3.9725    8.3631   -6.5627 C   0  0  0  0  0  0  0  0  0  0  0  0
    4.4824    8.4628   -3.0446 C   0  0  0  0  0  0  0  0  0  0  0  0
    3.7778    9.1007   -1.8241 C   0  0  0  0  0  0  0  0  0  0  0  0
    4.0227   10.5633   -1.6404 C   0  0  0  0  0  0  0  0  0  0  0  0
    3.6179   11.3685   -2.8283 C   0  0  0  0  0  0  0  0  0  0  0  0
    4.0476   10.7371   -4.1583 C   0  0  0  0  0  0  0  0  0  0  0  0
    4.3536    9.4104   -4.2827 C   0  0  0  0  0  0  0  0  0  0  0  0
    3.8033    7.1193   -3.3381 C   0  0  0  0  0  0  0  0  0  0  0  0
    5.9844    8.2269   -2.7289 C   0  0  0  0  0  0  0  0  0  0  0  0
    3.9235   11.7620   -5.2888 C   0  0  0  0  0  0  0  0  0  0  0  0
    4.4088    7.7109   -7.7768 C   0  0  0  0  0  0  0  0  0  0  0  0
    5.7051    7.3502   -7.8716 C   0  0  0  0  0  0  0  0  0  0  0  0
    3.4023    7.4020   -8.8926 C   0  0  0  0  0  0  0  0  0  0  0  0
    6.2824    6.7069   -9.0347 C   0  0  0  0  0  0  0  0  0  0  0  0
    6.5083    5.3906   -8.9921 C   0  0  0  0  0  0  0  0  0  0  0  0
    7.0997    4.6607  -10.0912 C   0  0  0  0  0  0  0  0  0  0  0  0
    6.4392    3.5884  -10.5954 C   0  0  0  0  0  0  0  0  0  0  0  0
    8.4615    5.1235  -10.6370 C   0  0  0  0  0  0  0  0  0  0  0  0
    6.8592    2.7090  -11.6960 C   0  0  0  0  0  0  0  0  0  0  0  0
    6.3544    2.8628  -12.8301 O   0  0  0  0  0  0  0  0  0  0  0  0
    7.7174    1.8247  -11.4767 O   0  0  0  0  0  0  0  0  0  0  0  0
  3  4  1  0  0  0
  3  8  1  0  0  0
  3  9  1  0  0  0
  3 10  1  0  0  0
  4  5  1  0  0  0
  5  6  1  0  0  0
  6  7  1  0  0  0
  7  8  2  0  0  0
  7 11  1  0  0  0
  8  1  1  0  0  0
  1  2  2  0  0  0
  2 12  1  0  0  0
 12 13  2  0  0  0
 12 14  1  0  0  0
 13 15  1  0  0  0
 15 16  2  0  0  0
 16 17  1  0  0  0
 17 18  2  0  0  0
 17 19  1  0  0  0
 18 20  1  0  0  0
 20 21  1  0  0  0
 20 22  2  0  0  0
M  CHG 1  21  -1
M  END
> <minimizedAffinity>
-8.54305

$$$$
1cbr_ligand


 22 22  0  0  0  0  0  0  0  0999 V2000
    4.7555    8.4235   -5.9260 C   0  0  0  0  0  0  0  0  0  0  0  0
    4.0275    8.0215   -6.9746 C   0  0  0  0  0  0  0  0  0  0  0  0
    4.3931    8.5772   -3.4231 C   0  0  0  0  0  0  0  0  0  0  0  0
    3.6832    9.4456   -2.3580 C   0  0  0  0  0  0  0  0  0  0  0  0
    3.9958   10.9058   -2.4156 C   0  0  0  0  0  0  0  0  0  0  0  0
    3.6703   11.5124   -3.7382 C   0  0  0  0  0  0  0  0  0  0  0  0
    4.1096   10.6438   -4.9234 C   0  0  0  0  0  0  0  0  0  0  0  0
    4.3519    9.3031   -4.8084 C   0  0  0  0  0  0  0  0  0  0  0  0
    3.6566    7.2348   -3.5111 C   0  0  0  0  0  0  0  0  0  0  0  0
    5.8704    8.3325   -3.0122 C   0  0  0  0  0  0  0  0  0  0  0  0
    4.0736   11.4639   -6.2156 C   0  0  0  0  0  0  0  0  0  0  0  0
    4.4649    7.1459   -8.0386 C   0  0  0  0  0  0  0  0  0  0  0  0
    3.5441    6.3558   -8.6278 C   0  0  0  0  0  0  0  0  0  0  0  0
    5.9268    7.1651   -8.5032 C   0  0  0  0  0  0  0  0  0  0  0  0
    3.8444    5.4187   -9.6916 C   0  0  0  0  0  0  0  0  0  0  0  0
    4.0586    4.1384   -9.3753 C   0  0  0  0  0  0  0  0  0  0  0  0
    4.3858    3.1316  -10.3602 C   0  0  0  0  0  0  0  0  0  0  0  0
    5.3601    3.3952  -11.2667 C   0  0  0  0  0  0  0  0  0  0  0  0
    3.6065    1.8054  -10.3474 C   0  0  0  0  0  0  0  0  0  0  0  0
    5.8418    2.5243  -12.3487 C   0  0  0  0  0  0  0  0  0  0  0  0
    6.8550    1.8156  -12.1597 O   0  0  0  0  0  0  0  0  0  0  0  0
    5.2255    2.5070  -13.4378 O   0  0  0  0  0  0  0  0  0  0  0  0
  3  4  1  0  0  0
  3  8  1  0  0  0
  3  9  1  0  0  0
  3 10  1  0  0  0
  4  5  1  0  0  0
  5  6  1  0  0  0
  6  7  1  0  0  0
  7  8  2  0  0  0
  7 11  1  0  0  0
  8  1  1  0  0  0
  1  2  2  0  0  0
  2 12  1  0  0  0
 12 13  2  0  0  0
 12 14  1  0  0  0
 13 15  1  0  0  0
 15 16  2  0  0  0
 16 17  1  0  0  0
 17 18  2  0  0  0
 17 19  1  0  0  0
 18 20  1  0  0  0
 20 21  1  0  0  0
 20 22  2  0  0  0
M  CHG 1  21  -1
M  END
> <minimizedAffinity>
-8.40866

$$$$
1cbr_ligand


 22 22  0  0  0  0  0  0  0  0999 V2000
    4.0726    8.6490   -6.2879 C   0  0  0  0  0  0  0  0  0  0  0  0
    5.1384    8.0090   -6.7836 C   0  0  0  0  0  0  0  0  0  0  0  0
    3.4292   10.9684   -5.4968 C   0  0  0  0  0  0  0  0  0  0  0  0
    3.6640   11.9523   -4.3266 C   0  0  0  0  0  0  0  0  0  0  0  0
    3.3932   11.3986   -2.9653 C   0  0  0  0  0  0  0  0  0  0  0  0
    4.2066   10.1856   -2.6649 C   0  0  0  0  0  0  0  0  0  0  0  0
    4.2679    9.1967   -3.8356 C   0  0  0  0  0  0  0  0  0  0  0  0
    4.0049    9.5616   -5.1267 C   0  0  0  0  0  0  0  0  0  0  0  0
    4.1467   11.5208   -6.7347 C   0  0  0  0  0  0  0  0  0  0  0  0
    1.9095   10.8435   -5.7906 C   0  0  0  0  0  0  0  0  0  0  0  0
    4.8020    7.8458   -3.3526 C   0  0  0  0  0  0  0  0  0  0  0  0
    5.1563    7.1347   -7.9347 C   0  0  0  0  0  0  0  0  0  0  0  0
    4.0334    6.4457   -8.2245 C   0  0  0  0  0  0  0  0  0  0  0  0
    6.4080    7.0443   -8.8170 C   0  0  0  0  0  0  0  0  0  0  0  0
    3.9155    5.5219   -9.3348 C   0  0  0  0  0  0  0  0  0  0  0  0
    4.2018    4.2332   -9.1283 C   0  0  0  0  0  0  0  0  0  0  0  0
    4.1357    3.2380  -10.1750 C   0  0  0  0  0  0  0  0  0  0  0  0
    4.3283    3.6264  -11.4605 C   0  0  0  0  0  0  0  0  0  0  0  0
    3.8375    1.7790   -9.7889 C   0  0  0  0  0  0  0  0  0  0  0  0
    4.2973    2.7883  -12.6679 C   0  0  0  0  0  0  0  0  0  0  0  0
    5.3541    2.5988  -13.3096 O   0  0  0  0  0  0  0  0  0  0  0  0
    3.2130    2.2777  -13.0283 O   0  0  0  0  0  0  0  0  0  0  0  0
  3  4  1  0  0  0
  3  8  1  0  0  0
  3  9  1  0  0  0
  3 10  1  0  0  0
  4  5  1  0  0  0
  5  6  1  0  0  0
  6  7  1  0  0  0
  7  8  2  0  0  0
  7 11  1  0  0  0
  8  1  1  0  0  0
  1  2  2  0  0  0
  2 12  1  0  0  0
 12 13  2  0  0  0
 12 14  1  0  0  0
 13 15  1  0  0  0
 15 16  2  0  0  0
 16 17  1  0  0  0
 17 18  2  0  0  0
 17 19  1  0  0  0
 18 20  1  0  0  0
 20 21  1  0  0  0
 20 22  2  0  0  0
M  CHG 1  21  -1
M  END
> <minimizedAffinity>
-8.34246

$$$$
1cbr_ligand


 22 22  0  0  0  0  0  0  0  0999 V2000
    4.2470    8.9839   -5.6575 C   0  0  0  0  0  0  0  0  0  0  0  0
    3.3554    8.2073   -6.2845 C   0  0  0  0  0  0  0  0  0  0  0  0
    3.5956   11.3490   -5.0243 C   0  0  0  0  0  0  0  0  0  0  0  0
    3.6710   12.3462   -3.8442 C   0  0  0  0  0  0  0  0  0  0  0  0
    3.1358   11.8370   -2.5453 C   0  0  0  0  0  0  0  0  0  0  0  0
    3.8193   10.5928   -2.0891 C   0  0  0  0  0  0  0  0  0  0  0  0
    4.0346    9.5761   -3.2171 C   0  0  0  0  0  0  0  0  0  0  0  0
    4.0229    9.9244   -4.5391 C   0  0  0  0  0  0  0  0  0  0  0  0
    4.5479   11.8378   -6.1226 C   0  0  0  0  0  0  0  0  0  0  0  0
    2.1472   11.2918   -5.5813 C   0  0  0  0  0  0  0  0  0  0  0  0
    4.4042    8.2119   -2.6289 C   0  0  0  0  0  0  0  0  0  0  0  0
    3.6275    7.2899   -7.3682 C   0  0  0  0  0  0  0  0  0  0  0  0
    4.8689    6.7708   -7.4622 C   0  0  0  0  0  0  0  0  0  0  0  0
    2.5113    6.8922   -8.3425 C   0  0  0  0  0  0  0  0  0  0  0  0
    5.2856    5.8556   -8.5056 C   0  0  0  0  0  0  0  0  0  0  0  0
    6.5766    5.8208   -8.8484 C   0  0  0  0  0  0  0  0  0  0  0  0
    7.0880    4.9588   -9.8906 C   0  0  0  0  0  0  0  0  0  0  0  0
    6.2796    3.9947  -10.3980 C   0  0  0  0  0  0  0  0  0  0  0  0
    8.5341    5.1629  -10.3741 C   0  0  0  0  0  0  0  0  0  0  0  0
    6.5969    3.0145  -11.4466 C   0  0  0  0  0  0  0  0  0  0  0  0
    7.2475    1.9883  -11.1495 O   0  0  0  0  0  0  0  0  0  0  0  0
    6.2061    3.2250  -12.6168 O   0  0  0  0  0  0  0  0  0  0  0  0
  3  4  1  0  0  0
  3  8  1  0  0  0
  3  9  1  0  0  0
  3 10  1  0  0  0
  4  5  1  0  0  0
  5  6  1  0  0  0
  6  7  1  0  0  0
  7  8  2  0  0  0
  7 11  1  0  0  0
  8  1  1  0  0  0
  1  2  2  0  0  0
  2 12  1  0  0  0
 12 13  2  0  0  0
 12 14  1  0  0  0
 13 15  1  0  0  0
 15 16  2  0  0  0
 16 17  1  0  0  0
 17 18  2  0  0  0
 17 19  1  0  0  0
 18 20  1  0  0  0
 20 21  1  0  0  0
 20 22  2  0  0  0
M  CHG 1  21  -1
M  END
> <minimizedAffinity>
-8.30189

$$$$
1cbr_ligand


 22 22  0  0  0  0  0  0  0  0999 V2000
    5.9191    4.3502   -9.3350 C   0  0  0  0  0  0  0  0  0  0  0  0
    5.0582    5.3538   -9.5414 C   0  0  0  0  0  0  0  0  0  0  0  0
    7.4357    2.8557  -10.7082 C   0  0  0  0  0  0  0  0  0  0  0  0
    7.3857    1.6588  -11.6869 C   0  0  0  0  0  0  0  0  0  0  0  0
    6.6331    0.4652  -11.1947 C   0  0  0  0  0  0  0  0  0  0  0  0
    5.2189    0.7809  -10.8434 C   0  0  0  0  0  0  0  0  0  0  0  0
    5.0718    2.0887  -10.0559 C   0  0  0  0  0  0  0  0  0  0  0  0
    6.0274    3.0665  -10.0604 C   0  0  0  0  0  0  0  0  0  0  0  0
    7.8410    4.1036  -11.5024 C   0  0  0  0  0  0  0  0  0  0  0  0
    8.4823    2.5880   -9.5928 C   0  0  0  0  0  0  0  0  0  0  0  0
    3.6766    2.1696   -9.4309 C   0  0  0  0  0  0  0  0  0  0  0  0
    5.0013    6.6002   -8.8112 C   0  0  0  0  0  0  0  0  0  0  0  0
    3.8062    6.9974   -8.3279 C   0  0  0  0  0  0  0  0  0  0  0  0
    6.2811    7.4082   -8.5609 C   0  0  0  0  0  0  0  0  0  0  0  0
    3.5997    8.2304   -7.5952 C   0  0  0  0  0  0  0  0  0  0  0  0
    3.7780    8.2255   -6.2709 C   0  0  0  0  0  0  0  0  0  0  0  0
    3.5763    9.3975   -5.4484 C   0  0  0  0  0  0  0  0  0  0  0  0
    3.2897   10.5786   -6.0511 C   0  0  0  0  0  0  0  0  0  0  0  0
    3.7069    9.2594   -3.9218 C   0  0  0  0  0  0  0  0  0  0  0  0
    3.0569   11.8817   -5.4118 C   0  0  0  0  0  0  0  0  0  0  0  0
    4.0258   12.5109   -4.9324 O   0  0  0  0  0  0  0  0  0  0  0  0
    1.8924   12.3378   -5.3628 O   0  0  0  0  0  0  0  0  0  0  0  0
  3  4  1  0  0  0
  3  8  1  0  0  0
  3  9  1  0  0  0
  3 10  1  0  0  0
  4  5  1  0  0  0
  5  6  1  0  0  0
  6  7  1  0  0  0
  7  8  2  0  0  0
  7 11  1  0  0  0
  8  1  1  0  0  0
  1  2  2  0  0  0
  2 12  1  0  0  0
 12 13  2  0  0  0
 12 14  1  0  0  0
 13 15  1  0  0  0
 15 16  2  0  0  0
 16 17  1  0  0  0
 17 18  2  0  0  0
 17 19  1  0  0  0
 18 20  1  0  0  0
 20 21  1  0  0  0
 20 22  2  0  0  0
M  CHG 1  21  -1
M  END
> <minimizedAffinity>
-8.19502

$$$$
1cbr_ligand


 22 22  0  0  0  0  0  0  0  0999 V2000
    6.9459    3.0569   -9.4936 C   0  0  0  0  0  0  0  0  0  0  0  0
    7.1458    4.0692   -8.6413 C   0  0  0  0  0  0  0  0  0  0  0  0
    8.7372    1.6168  -10.5599 C   0  0  0  0  0  0  0  0  0  0  0  0
    9.1528    0.1365  -10.7291 C   0  0  0  0  0  0  0  0  0  0  0  0
    9.2639   -0.6427   -9.4588 C   0  0  0  0  0  0  0  0  0  0  0  0
    7.9960   -0.6487   -8.6743 C   0  0  0  0  0  0  0  0  0  0  0  0
    7.3228    0.7278   -8.6077 C   0  0  0  0  0  0  0  0  0  0  0  0
    7.5859    1.7242   -9.5061 C   0  0  0  0  0  0  0  0  0  0  0  0
    8.2543    2.1345  -11.9204 C   0  0  0  0  0  0  0  0  0  0  0  0
    9.9518    2.4599  -10.0853 C   0  0  0  0  0  0  0  0  0  0  0  0
    6.2475    0.7326   -7.5180 C   0  0  0  0  0  0  0  0  0  0  0  0
    6.4822    5.3534   -8.6626 C   0  0  0  0  0  0  0  0  0  0  0  0
    5.3570    5.4973   -7.9327 C   0  0  0  0  0  0  0  0  0  0  0  0
    7.0822    6.5201   -9.4577 C   0  0  0  0  0  0  0  0  0  0  0  0
    4.5810    6.7198   -7.8759 C   0  0  0  0  0  0  0  0  0  0  0  0
    4.6994    7.5037   -6.8002 C   0  0  0  0  0  0  0  0  0  0  0  0
    3.9530    8.7315   -6.6389 C   0  0  0  0  0  0  0  0  0  0  0  0
    4.5341    9.7699   -5.9874 C   0  0  0  0  0  0  0  0  0  0  0  0
    2.5238    8.8063   -7.2033 C   0  0  0  0  0  0  0  0  0  0  0  0
    3.9574   11.0930   -5.7084 C   0  0  0  0  0  0  0  0  0  0  0  0
    3.1641   11.2261   -4.7505 O   0  0  0  0  0  0  0  0  0  0  0  0
    4.2749   12.0621   -6.4340 O   0  0  0  0  0  0  0  0  0  0  0  0
  3  4  1  0  0  0
  3  8  1  0  0  0
  3  9  1  0  0  0
  3 10  1  0  0  0
  4  5  1  0  0  0
  5  6  1  0  0  0
  6  7  1  0  0  0
  7  8  2  0  0  0
  7 11  1  0  0  0
  8  1  1  0  0  0
  1  2  2  0  0  0
  2 12  1  0  0  0
 12 13  2  0  0  0
 12 14  1  0  0  0
 13 15  1  0  0  0
 15 16  2  0  0  0
 16 17  1  0  0  0
 17 18  2  0  0  0
 17 19  1  0  0  0
 18 20  1  0  0  0
 20 21  1  0  0  0
 20 22  2  0  0  0
M  CHG 1  21  -1
M  END
> <minimizedAffinity>
-7.34276

$$$$
1cbr_ligand


 22 22  0  0  0  0  0  0  0  0999 V2000
    5.2446    2.9338   -8.7846 C   0  0  0  0  0  0  0  0  0  0  0  0
    4.6893    3.8814   -9.5494 C   0  0  0  0  0  0  0  0  0  0  0  0
    6.9138    1.0332   -8.6405 C   0  0  0  0  0  0  0  0  0  0  0  0
    7.2363   -0.3399   -9.2754 C   0  0  0  0  0  0  0  0  0  0  0  0
    6.1054   -1.3167   -9.2883 C   0  0  0  0  0  0  0  0  0  0  0  0
    4.9031   -0.7959  -10.0000 C   0  0  0  0  0  0  0  0  0  0  0  0
    4.5800    0.6616   -9.6489 C   0  0  0  0  0  0  0  0  0  0  0  0
    5.5048    1.5172   -9.1179 C   0  0  0  0  0  0  0  0  0  0  0  0
    7.9910    2.0293   -9.0874 C   0  0  0  0  0  0  0  0  0  0  0  0
    6.9232    0.9191   -7.0918 C   0  0  0  0  0  0  0  0  0  0  0  0
    3.1668    1.0132  -10.1213 C   0  0  0  0  0  0  0  0  0  0  0  0
    4.4683    5.2618   -9.1814 C   0  0  0  0  0  0  0  0  0  0  0  0
    5.3324    5.8333   -8.3175 C   0  0  0  0  0  0  0  0  0  0  0  0
    3.3095    6.0513   -9.8036 C   0  0  0  0  0  0  0  0  0  0  0  0
    5.2218    7.2000   -7.8486 C   0  0  0  0  0  0  0  0  0  0  0  0
    4.2139    7.5165   -7.0305 C   0  0  0  0  0  0  0  0  0  0  0  0
    4.0047    8.8551   -6.5256 C   0  0  0  0  0  0  0  0  0  0  0  0
    2.7794    9.4215   -6.6608 C   0  0  0  0  0  0  0  0  0  0  0  0
    5.1851    9.5880   -5.8653 C   0  0  0  0  0  0  0  0  0  0  0  0
    2.3550   10.7614   -6.2297 C   0  0  0  0  0  0  0  0  0  0  0  0
    2.2395   11.0040   -5.0080 O   0  0  0  0  0  0  0  0  0  0  0  0
    2.1207   11.6348   -7.0948 O   0  0  0  0  0  0  0  0  0  0  0  0
  3  4  1  0  0  0
  3  8  1  0  0  0
  3  9  1  0  0  0
  3 10  1  0  0  0
  4  5  1  0  0  0
  5  6  1  0  0  0
  6  7  1  0  0  0
  7  8  2  0  0  0
  7 11  1  0  0  0
  8  1  1  0  0  0
  1  2  2  0  0  0
  2 12  1  0  0  0
 12 13  2  0  0  0
 12 14  1  0  0  0
 13 15  1  0  0  0
 15 16  2  0  0  0
 16 17  1  0  0  0
 17 18  2  0  0  0
 17 19  1  0  0  0
 18 20  1  0  0  0
 20 21  1  0  0  0
 20 22  2  0  0  0
M  CHG 1  21  -1
M  END
> <minimizedAffinity>
-6.97315

$$$$
