1a99_ligand


 12 11  0  0  0  0  0  0  0  0999 V2000
  183.6459    8.2521   63.8535 C   0  0  0  0  0  0  0  0  0  0  0  0
  185.7076    7.8982   65.2214 N   0  0  0  0  0  0  0  0  0  0  0  0
  184.5403    7.2287   64.5756 C   0  0  0  0  0  0  0  0  0  0  0  0
  186.2761    7.2076   65.6863 H   0  0  0  0  0  0  0  0  0  0  0  0
  185.3782    8.5713   65.8956 H   0  0  0  0  0  0  0  0  0  0  0  0
  186.2569    8.3676   64.5186 H   0  0  0  0  0  0  0  0  0  0  0  0
  183.0410    7.7162   62.5677 C   0  0  0  0  0  0  0  0  0  0  0  0
  184.0930    7.2892   61.5635 C   0  0  0  0  0  0  0  0  0  0  0  0
  183.4655    6.7162   60.3479 N   0  0  0  0  0  0  0  0  0  0  0  0
  184.1840    6.4405   59.6969 H   0  0  0  0  0  0  0  0  0  0  0  0
  182.8709    7.4079   59.9189 H   0  0  0  0  0  0  0  0  0  0  0  0
  182.9150    5.9108   60.6016 H   0  0  0  0  0  0  0  0  0  0  0  0
  2  3  1  0  0  0
  3  1  1  0  0  0
  1  7  1  0  0  0
  7  8  1  0  0  0
  8  9  1  0  0  0
  2  4  1  0  0  0
  2  5  1  0  0  0
  2  6  1  0  0  0
  9 10  1  0  0  0
  9 11  1  0  0  0
  9 12  1  0  0  0
M  CHG 1   2   1
M  CHG 1   9   1
M  END
> <minimizedAffinity>
-4.97510

$$$$
1a99_ligand


 12 11  0  0  0  0  0  0  0  0999 V2000
  183.0700    7.7856   62.5924 C   0  0  0  0  0  0  0  0  0  0  0  0
  183.4066    6.7062   60.3634 N   0  0  0  0  0  0  0  0  0  0  0  0
  184.0918    7.2695   61.5638 C   0  0  0  0  0  0  0  0  0  0  0  0
  184.0965    6.3759   59.7068 H   0  0  0  0  0  0  0  0  0  0  0  0
  182.8457    7.4226   59.9296 H   0  0  0  0  0  0  0  0  0  0  0  0
  182.8149    5.9395   60.6432 H   0  0  0  0  0  0  0  0  0  0  0  0
  183.7116    8.2812   63.8765 C   0  0  0  0  0  0  0  0  0  0  0  0
  184.6266    7.2495   64.5058 C   0  0  0  0  0  0  0  0  0  0  0  0
  185.7253    7.9023   65.2584 N   0  0  0  0  0  0  0  0  0  0  0  0
  186.3186    7.1969   65.6664 H   0  0  0  0  0  0  0  0  0  0  0  0
  185.3365    8.4779   65.9888 H   0  0  0  0  0  0  0  0  0  0  0  0
  186.2676    8.4758   64.6314 H   0  0  0  0  0  0  0  0  0  0  0  0
  2  3  1  0  0  0
  3  1  1  0  0  0
  1  7  1  0  0  0
  7  8  1  0  0  0
  8  9  1  0  0  0
  2  4  1  0  0  0
  2  5  1  0  0  0
  2  6  1  0  0  0
  9 10  1  0  0  0
  9 11  1  0  0  0
  9 12  1  0  0  0
M  CHG 1   2   1
M  CHG 1   9   1
M  END
> <minimizedAffinity>
-4.95599

$$$$
1a99_ligand


 12 11  0  0  0  0  0  0  0  0999 V2000
  184.1456    7.1936   61.8935 C   0  0  0  0  0  0  0  0  0  0  0  0
  181.6558    7.2321   61.6778 N   0  0  0  0  0  0  0  0  0  0  0  0
  182.8317    7.8400   62.3673 C   0  0  0  0  0  0  0  0  0  0  0  0
  180.8099    7.6720   62.0051 H   0  0  0  0  0  0  0  0  0  0  0  0
  181.6210    6.2452   61.8797 H   0  0  0  0  0  0  0  0  0  0  0  0
  181.7421    7.3686   60.6828 H   0  0  0  0  0  0  0  0  0  0  0  0
  184.5841    7.6676   60.5190 C   0  0  0  0  0  0  0  0  0  0  0  0
  184.7429    6.5270   59.5333 C   0  0  0  0  0  0  0  0  0  0  0  0
  183.4492    6.2006   58.8857 N   0  0  0  0  0  0  0  0  0  0  0  0
  183.5807    5.4410   58.2363 H   0  0  0  0  0  0  0  0  0  0  0  0
  183.1072    7.0098   58.3914 H   0  0  0  0  0  0  0  0  0  0  0  0
  182.7802    5.9291   59.5891 H   0  0  0  0  0  0  0  0  0  0  0  0
  2  3  1  0  0  0
  3  1  1  0  0  0
  1  7  1  0  0  0
  7  8  1  0  0  0
  8  9  1  0  0  0
  2  4  1  0  0  0
  2  5  1  0  0  0
  2  6  1  0  0  0
  9 10  1  0  0  0
  9 11  1  0  0  0
  9 12  1  0  0  0
M  CHG 1   2   1
M  CHG 1   9   1
M  END
> <minimizedAffinity>
-4.69426

$$$$
1a99_ligand


 12 11  0  0  0  0  0  0  0  0999 V2000
  184.5159    7.6562   60.4962 C   0  0  0  0  0  0  0  0  0  0  0  0
  183.4195    6.1606   58.8204 N   0  0  0  0  0  0  0  0  0  0  0  0
  184.7089    6.5122   59.4849 C   0  0  0  0  0  0  0  0  0  0  0  0
  183.5731    5.4106   58.1646 H   0  0  0  0  0  0  0  0  0  0  0  0
  183.0627    6.9667   58.3315 H   0  0  0  0  0  0  0  0  0  0  0  0
  182.7519    5.8670   59.5163 H   0  0  0  0  0  0  0  0  0  0  0  0
  184.1083    7.1722   61.8767 C   0  0  0  0  0  0  0  0  0  0  0  0
  182.8152    7.8014   62.3557 C   0  0  0  0  0  0  0  0  0  0  0  0
  181.6622    7.3202   61.5564 N   0  0  0  0  0  0  0  0  0  0  0  0
  180.8160    7.7520   61.8935 H   0  0  0  0  0  0  0  0  0  0  0  0
  181.5867    6.3189   61.6448 H   0  0  0  0  0  0  0  0  0  0  0  0
  181.8002    7.5625   60.5878 H   0  0  0  0  0  0  0  0  0  0  0  0
  2  3  1  0  0  0
  3  1  1  0  0  0
  1  7  1  0  0  0
  7  8  1  0  0  0
  8  9  1  0  0  0
  2  4  1  0  0  0
  2  5  1  0  0  0
  2  6  1  0  0  0
  9 10  1  0  0  0
  9 11  1  0  0  0
  9 12  1  0  0  0
M  CHG 1   2   1
M  CHG 1   9   1
M  END
> <minimizedAffinity>
-4.67789

$$$$
1a99_ligand


 12 11  0  0  0  0  0  0  0  0999 V2000
  184.9060    8.2533   64.9183 C   0  0  0  0  0  0  0  0  0  0  0  0
  186.7553    8.3890   66.5943 N   0  0  0  0  0  0  0  0  0  0  0  0
  186.1949    7.6052   65.4544 C   0  0  0  0  0  0  0  0  0  0  0  0
  187.5969    7.9444   66.9262 H   0  0  0  0  0  0  0  0  0  0  0  0
  186.0788    8.4272   67.3406 H   0  0  0  0  0  0  0  0  0  0  0  0
  186.9687    9.3246   66.2860 H   0  0  0  0  0  0  0  0  0  0  0  0
  184.0621    7.3060   64.0837 C   0  0  0  0  0  0  0  0  0  0  0  0
  183.2918    8.0214   62.9917 C   0  0  0  0  0  0  0  0  0  0  0  0
  182.4663    7.0675   62.2117 N   0  0  0  0  0  0  0  0  0  0  0  0
  181.9649    7.5662   61.4934 H   0  0  0  0  0  0  0  0  0  0  0  0
  181.8092    6.6118   62.8255 H   0  0  0  0  0  0  0  0  0  0  0  0
  183.0636    6.3760   61.7860 H   0  0  0  0  0  0  0  0  0  0  0  0
  2  3  1  0  0  0
  3  1  1  0  0  0
  1  7  1  0  0  0
  7  8  1  0  0  0
  8  9  1  0  0  0
  2  4  1  0  0  0
  2  5  1  0  0  0
  2  6  1  0  0  0
  9 10  1  0  0  0
  9 11  1  0  0  0
  9 12  1  0  0  0
M  CHG 1   2   1
M  CHG 1   9   1
M  END
> <minimizedAffinity>
-4.36204

$$$$
1a99_ligand


 12 11  0  0  0  0  0  0  0  0999 V2000
  184.5740    7.5960   64.7861 C   0  0  0  0  0  0  0  0  0  0  0  0
  183.4236    6.5268   62.8417 N   0  0  0  0  0  0  0  0  0  0  0  0
  184.2209    7.7055   63.2921 C   0  0  0  0  0  0  0  0  0  0  0  0
  183.2060    6.6230   61.8622 H   0  0  0  0  0  0  0  0  0  0  0  0
  182.5683    6.4770   63.3727 H   0  0  0  0  0  0  0  0  0  0  0  0
  183.9582    5.6846   62.9860 H   0  0  0  0  0  0  0  0  0  0  0  0
  186.0683    7.5089   65.0430 C   0  0  0  0  0  0  0  0  0  0  0  0
  186.4684    8.1303   66.3664 C   0  0  0  0  0  0  0  0  0  0  0  0
  187.8437    7.7273   66.7483 N   0  0  0  0  0  0  0  0  0  0  0  0
  188.0859    8.1523   67.6297 H   0  0  0  0  0  0  0  0  0  0  0  0
  188.4921    8.0316   66.0391 H   0  0  0  0  0  0  0  0  0  0  0  0
  187.8879    6.7241   66.8358 H   0  0  0  0  0  0  0  0  0  0  0  0
  2  3  1  0  0  0
  3  1  1  0  0  0
  1  7  1  0  0  0
  7  8  1  0  0  0
  8  9  1  0  0  0
  2  4  1  0  0  0
  2  5  1  0  0  0
  2  6  1  0  0  0
  9 10  1  0  0  0
  9 11  1  0  0  0
  9 12  1  0  0  0
M  CHG 1   2   1
M  CHG 1   9   1
M  END
> <minimizedAffinity>
-4.07536

$$$$
1a99_ligand


 12 11  0  0  0  0  0  0  0  0999 V2000
  183.4272    7.6664   61.4271 C   0  0  0  0  0  0  0  0  0  0  0  0
  184.6656    7.6950   63.5980 N   0  0  0  0  0  0  0  0  0  0  0  0
  183.3979    7.2937   62.9201 C   0  0  0  0  0  0  0  0  0  0  0  0
  184.6208    7.4403   64.5723 H   0  0  0  0  0  0  0  0  0  0  0  0
  184.7890    8.6921   63.5167 H   0  0  0  0  0  0  0  0  0  0  0  0
  185.4431    7.2236   63.1629 H   0  0  0  0  0  0  0  0  0  0  0  0
  184.7653    7.3854   60.7663 C   0  0  0  0  0  0  0  0  0  0  0  0
  184.6493    6.4169   59.6060 C   0  0  0  0  0  0  0  0  0  0  0  0
  183.2537    6.3485   59.1086 N   0  0  0  0  0  0  0  0  0  0  0  0
  183.2027    5.6995   58.3390 H   0  0  0  0  0  0  0  0  0  0  0  0
  182.9628    7.2621   58.7975 H   0  0  0  0  0  0  0  0  0  0  0  0
  182.6471    6.0375   59.8511 H   0  0  0  0  0  0  0  0  0  0  0  0
  2  3  1  0  0  0
  3  1  1  0  0  0
  1  7  1  0  0  0
  7  8  1  0  0  0
  8  9  1  0  0  0
  2  4  1  0  0  0
  2  5  1  0  0  0
  2  6  1  0  0  0
  9 10  1  0  0  0
  9 11  1  0  0  0
  9 12  1  0  0  0
M  CHG 1   2   1
M  CHG 1   9   1
M  END
> <minimizedAffinity>
-3.60785

$$$$
1a99_ligand


 12 11  0  0  0  0  0  0  0  0999 V2000
  184.5168    7.1313   60.8057 C   0  0  0  0  0  0  0  0  0  0  0  0
  185.0398    6.2359   58.5315 N   0  0  0  0  0  0  0  0  0  0  0  0
  183.9462    6.5754   59.4888 C   0  0  0  0  0  0  0  0  0  0  0  0
  184.6403    5.8750   57.6793 H   0  0  0  0  0  0  0  0  0  0  0  0
  185.6415    5.5392   58.9420 H   0  0  0  0  0  0  0  0  0  0  0  0
  185.5761    7.0645   58.3265 H   0  0  0  0  0  0  0  0  0  0  0  0
  183.5232    7.0893   61.9534 C   0  0  0  0  0  0  0  0  0  0  0  0
  184.1419    7.5022   63.2741 C   0  0  0  0  0  0  0  0  0  0  0  0
  183.5363    6.7529   64.4017 N   0  0  0  0  0  0  0  0  0  0  0  0
  183.9634    7.0446   65.2669 H   0  0  0  0  0  0  0  0  0  0  0  0
  183.6876    5.7652   64.2686 H   0  0  0  0  0  0  0  0  0  0  0  0
  182.5463    6.9395   64.4362 H   0  0  0  0  0  0  0  0  0  0  0  0
  2  3  1  0  0  0
  3  1  1  0  0  0
  1  7  1  0  0  0
  7  8  1  0  0  0
  8  9  1  0  0  0
  2  4  1  0  0  0
  2  5  1  0  0  0
  2  6  1  0  0  0
  9 10  1  0  0  0
  9 11  1  0  0  0
  9 12  1  0  0  0
M  CHG 1   2   1
M  CHG 1   9   1
M  END
> <minimizedAffinity>
-3.49081

$$$$
1a99_ligand


 12 11  0  0  0  0  0  0  0  0999 V2000
  184.9688    6.9798   64.9544 C   0  0  0  0  0  0  0  0  0  0  0  0
  183.5552    8.5949   63.6737 N   0  0  0  0  0  0  0  0  0  0  0  0
  184.1086    7.2090   63.6989 C   0  0  0  0  0  0  0  0  0  0  0  0
  182.9970    8.7188   62.8435 H   0  0  0  0  0  0  0  0  0  0  0  0
  184.3131    9.2594   63.6712 H   0  0  0  0  0  0  0  0  0  0  0  0
  182.9815    8.7426   64.4893 H   0  0  0  0  0  0  0  0  0  0  0  0
  185.9847    8.0830   65.1932 C   0  0  0  0  0  0  0  0  0  0  0  0
  186.6611    7.9685   66.5449 C   0  0  0  0  0  0  0  0  0  0  0  0
  188.1005    7.6446   66.3930 N   0  0  0  0  0  0  0  0  0  0  0  0
  188.5269    7.5739   67.3036 H   0  0  0  0  0  0  0  0  0  0  0  0
  188.5549    8.3730   65.8648 H   0  0  0  0  0  0  0  0  0  0  0  0
  188.1980    6.7667   65.9074 H   0  0  0  0  0  0  0  0  0  0  0  0
  2  3  1  0  0  0
  3  1  1  0  0  0
  1  7  1  0  0  0
  7  8  1  0  0  0
  8  9  1  0  0  0
  2  4  1  0  0  0
  2  5  1  0  0  0
  2  6  1  0  0  0
  9 10  1  0  0  0
  9 11  1  0  0  0
  9 12  1  0  0  0
M  CHG 1   2   1
M  CHG 1   9   1
M  END
> <minimizedAffinity>
-2.70330

$$$$
1a99_ligand


 12 11  0  0  0  0  0  0  0  0999 V2000
  183.3367    6.4996   59.5340 C   0  0  0  0  0  0  0  0  0  0  0  0
  183.4041    5.8436   57.1232 N   0  0  0  0  0  0  0  0  0  0  0  0
  183.9777    5.5835   58.4763 C   0  0  0  0  0  0  0  0  0  0  0  0
  183.8397    5.2322   56.4504 H   0  0  0  0  0  0  0  0  0  0  0  0
  183.5741    6.8030   56.8648 H   0  0  0  0  0  0  0  0  0  0  0  0
  182.4111    5.6711   57.1404 H   0  0  0  0  0  0  0  0  0  0  0  0
  184.2691    6.8254   60.6877 C   0  0  0  0  0  0  0  0  0  0  0  0
  185.5067    7.5779   60.2409 C   0  0  0  0  0  0  0  0  0  0  0  0
  185.1534    8.6752   59.3077 N   0  0  0  0  0  0  0  0  0  0  0  0
  185.9914    9.1593   59.0257 H   0  0  0  0  0  0  0  0  0  0  0  0
  184.5313    9.3208   59.7684 H   0  0  0  0  0  0  0  0  0  0  0  0
  184.6975    8.2913   58.4948 H   0  0  0  0  0  0  0  0  0  0  0  0
  2  3  1  0  0  0
  3  1  1  0  0  0
  1  7  1  0  0  0
  7  8  1  0  0  0
  8  9  1  0  0  0
  2  4  1  0  0  0
  2  5  1  0  0  0
  2  6  1  0  0  0
  9 10  1  0  0  0
  9 11  1  0  0  0
  9 12  1  0  0  0
M  CHG 1   2   1
M  CHG 1   9   1
M  END
> <minimizedAffinity>
-2.61683

$$$$
