1afl_ligand


 34 36  0  0  0  0  0  0  0  0999 V2000
   38.9893   -7.2433   19.8609 C   0  0  0  0  0  0  0  0  0  0  0  0
   37.9846   -6.4514   19.2742 O   0  0  0  0  0  0  0  0  0  0  0  0
   39.8291   -7.9799   18.7169 C   0  0  0  0  0  0  0  0  0  0  0  0
   40.3855   -9.3541   19.0406 O   0  0  0  0  0  0  0  0  0  0  0  0
   38.6764   -8.1540   17.7460 C   0  0  0  0  0  0  0  0  0  0  0  0
   37.6668   -7.0427   18.0465 C   0  0  0  0  0  0  0  0  0  0  0  0
   39.7036   -9.8861   19.4337 H   0  0  0  0  0  0  0  0  0  0  0  0
   37.4234   -6.0401   16.9102 N   0  0  0  0  0  0  0  0  0  0  0  0
   36.3804   -6.2055   15.9803 C   0  0  0  0  0  0  0  0  0  0  0  0
   36.1468   -5.2012   15.1938 N   0  0  0  0  0  0  0  0  0  0  0  0
   37.1382   -4.2428   15.6186 C   0  0  0  0  0  0  0  0  0  0  0  0
   37.4030   -2.8933   15.2052 C   0  0  0  0  0  0  0  0  0  0  0  0
   36.7566   -2.3389   14.1493 N   0  0  0  0  0  0  0  0  0  0  0  0
   38.4054   -2.2243   15.8868 N   0  0  0  0  0  0  0  0  0  0  0  0
   39.0825   -2.8460   16.8480 C   0  0  0  0  0  0  0  0  0  0  0  0
   38.9490   -4.0765   17.3126 N   0  0  0  0  0  0  0  0  0  0  0  0
   37.9326   -4.7460   16.6581 C   0  0  0  0  0  0  0  0  0  0  0  0
   36.9626   -1.3690   13.8707 H   0  0  0  0  0  0  0  0  0  0  0  0
   36.0596   -2.8880   13.6261 H   0  0  0  0  0  0  0  0  0  0  0  0
   39.5493   -6.1223   20.5692 C   0  0  0  0  0  0  0  0  0  0  0  0
   38.5746   -5.1023   20.8483 O   0  0  0  0  0  0  0  0  0  0  0  0
   38.6848   -4.8539   22.4936 P   0  0  0  0  0  0  0  0  0  0  0  0
   37.4313   -5.4954   23.0505 O   0  0  0  0  0  0  0  0  0  0  0  0
   40.0831   -5.2778   22.9809 O   0  0  0  0  0  0  0  0  0  0  0  0
   38.3339   -3.1552   22.5605 O   0  0  0  0  0  0  0  0  0  0  0  0
   37.3814   -2.2009   23.3739 P   0  0  0  0  0  0  0  0  0  0  0  0
   36.0406   -2.3553   22.8210 O   0  0  0  0  0  0  0  0  0  0  0  0
   38.0237   -0.9282   23.0091 O   0  0  0  0  0  0  0  0  0  0  0  0
   37.4830   -2.6189   24.7766 O   0  0  0  0  0  0  0  0  0  0  0  0
   37.9813   -9.3404   18.0763 O   0  0  0  0  0  0  0  0  0  0  0  0
   37.6814  -10.3826   16.8381 P   0  0  0  0  0  0  0  0  0  0  0  0
   36.2540  -10.7960   16.9173 O   0  0  0  0  0  0  0  0  0  0  0  0
   38.0552   -9.6114   15.6045 O   0  0  0  0  0  0  0  0  0  0  0  0
   38.6920  -11.3355   17.3902 O   0  0  0  0  0  0  0  0  0  0  0  0
 26 25  1  0  0  0
 26 29  2  0  0  0
 26 28  2  0  0  0
 26 27  2  0  0  0
 25 22  1  0  0  0
 22 21  1  0  0  0
 22 24  2  0  0  0
 22 23  2  0  0  0
 21 20  1  0  0  0
 20  1  1  0  0  0
  1  3  1  0  0  0
  1  2  1  0  0  0
  2  6  1  0  0  0
  6  8  1  0  0  0
  6  5  1  0  0  0
  5 30  1  0  0  0
  5  3  1  0  0  0
  3  4  1  0  0  0
 30 31  1  0  0  0
 31 34  2  0  0  0
 31 33  2  0  0  0
 31 32  2  0  0  0
  8 17  1  0  0  0
  8  9  1  0  0  0
  9 10  2  0  0  0
 10 11  1  0  0  0
 11 17  2  0  0  0
 11 12  1  0  0  0
 12 14  2  0  0  0
 12 13  1  0  0  0
 14 15  1  0  0  0
 15 16  2  0  0  0
 16 17  1  0  0  0
  4  7  1  0  0  0
 13 18  1  0  0  0
 13 19  1  0  0  0
M  END
> <minimizedAffinity>
-6.82613

$$$$
1afl_ligand


 34 36  0  0  0  0  0  0  0  0999 V2000
   38.6230   -5.9508   20.9543 C   0  0  0  0  0  0  0  0  0  0  0  0
   37.6259   -5.9066   19.9620 O   0  0  0  0  0  0  0  0  0  0  0  0
   40.0507   -6.1779   20.2713 C   0  0  0  0  0  0  0  0  0  0  0  0
   41.0765   -6.9740   21.0565 O   0  0  0  0  0  0  0  0  0  0  0  0
   39.5558   -7.0435   19.1278 C   0  0  0  0  0  0  0  0  0  0  0  0
   38.0912   -6.6689   18.8847 C   0  0  0  0  0  0  0  0  0  0  0  0
   40.6713   -7.7638   21.3951 H   0  0  0  0  0  0  0  0  0  0  0  0
   37.7781   -6.0677   17.5077 N   0  0  0  0  0  0  0  0  0  0  0  0
   36.8376   -6.6483   16.6369 C   0  0  0  0  0  0  0  0  0  0  0  0
   36.5101   -5.9486   15.5953 N   0  0  0  0  0  0  0  0  0  0  0  0
   37.3151   -4.7622   15.7580 C   0  0  0  0  0  0  0  0  0  0  0  0
   37.4019   -3.5522   14.9896 C   0  0  0  0  0  0  0  0  0  0  0  0
   36.7531   -3.4200   13.8057 N   0  0  0  0  0  0  0  0  0  0  0  0
   38.2437   -2.5685   15.4802 N   0  0  0  0  0  0  0  0  0  0  0  0
   38.9393   -2.7855   16.5928 C   0  0  0  0  0  0  0  0  0  0  0  0
   38.9607   -3.8472   17.3802 N   0  0  0  0  0  0  0  0  0  0  0  0
   38.1034   -4.8263   16.9154 C   0  0  0  0  0  0  0  0  0  0  0  0
   36.8298   -2.5426   13.2716 H   0  0  0  0  0  0  0  0  0  0  0  0
   36.1838   -4.1969   13.4408 H   0  0  0  0  0  0  0  0  0  0  0  0
   38.2585   -4.6569   21.4692 C   0  0  0  0  0  0  0  0  0  0  0  0
   37.9821   -4.6816   22.8803 O   0  0  0  0  0  0  0  0  0  0  0  0
   39.1663   -3.7230   23.5580 P   0  0  0  0  0  0  0  0  0  0  0  0
   39.5515   -4.4513   24.8285 O   0  0  0  0  0  0  0  0  0  0  0  0
   40.2168   -3.3760   22.4864 O   0  0  0  0  0  0  0  0  0  0  0  0
   38.1903   -2.4051   24.1273 O   0  0  0  0  0  0  0  0  0  0  0  0
   37.5163   -1.1175   23.5214 P   0  0  0  0  0  0  0  0  0  0  0  0
   37.3092   -0.1808   24.6201 O   0  0  0  0  0  0  0  0  0  0  0  0
   36.2754   -1.7516   23.0489 O   0  0  0  0  0  0  0  0  0  0  0  0
   38.4387   -0.6158   22.4966 O   0  0  0  0  0  0  0  0  0  0  0  0
   39.4925   -8.3852   19.5700 O   0  0  0  0  0  0  0  0  0  0  0  0
   40.1748   -9.5140   18.5854 P   0  0  0  0  0  0  0  0  0  0  0  0
   39.3369  -10.7425   18.6404 O   0  0  0  0  0  0  0  0  0  0  0  0
   40.2394   -8.8449   17.2421 O   0  0  0  0  0  0  0  0  0  0  0  0
   41.4124   -9.5026   19.4235 O   0  0  0  0  0  0  0  0  0  0  0  0
 26 25  1  0  0  0
 26 29  2  0  0  0
 26 28  2  0  0  0
 26 27  2  0  0  0
 25 22  1  0  0  0
 22 21  1  0  0  0
 22 24  2  0  0  0
 22 23  2  0  0  0
 21 20  1  0  0  0
 20  1  1  0  0  0
  1  3  1  0  0  0
  1  2  1  0  0  0
  2  6  1  0  0  0
  6  8  1  0  0  0
  6  5  1  0  0  0
  5 30  1  0  0  0
  5  3  1  0  0  0
  3  4  1  0  0  0
 30 31  1  0  0  0
 31 34  2  0  0  0
 31 33  2  0  0  0
 31 32  2  0  0  0
  8 17  1  0  0  0
  8  9  1  0  0  0
  9 10  2  0  0  0
 10 11  1  0  0  0
 11 17  2  0  0  0
 11 12  1  0  0  0
 12 14  2  0  0  0
 12 13  1  0  0  0
 14 15  1  0  0  0
 15 16  2  0  0  0
 16 17  1  0  0  0
  4  7  1  0  0  0
 13 18  1  0  0  0
 13 19  1  0  0  0
M  END
> <minimizedAffinity>
-6.54999

$$$$
1afl_ligand


 34 36  0  0  0  0  0  0  0  0999 V2000
   39.4339   -5.4782   20.3530 C   0  0  0  0  0  0  0  0  0  0  0  0
   39.0461   -5.6012   19.0057 O   0  0  0  0  0  0  0  0  0  0  0  0
   39.8930   -3.9746   20.6447 C   0  0  0  0  0  0  0  0  0  0  0  0
   40.9890   -3.7714   21.6742 O   0  0  0  0  0  0  0  0  0  0  0  0
   40.4797   -3.7071   19.2714 C   0  0  0  0  0  0  0  0  0  0  0  0
   39.7576   -4.6329   18.2885 C   0  0  0  0  0  0  0  0  0  0  0  0
   41.7021   -4.3744   21.4994 H   0  0  0  0  0  0  0  0  0  0  0  0
   38.9392   -3.9334   17.1946 N   0  0  0  0  0  0  0  0  0  0  0  0
   39.2562   -2.6408   16.7377 C   0  0  0  0  0  0  0  0  0  0  0  0
   38.6255   -2.2344   15.6799 N   0  0  0  0  0  0  0  0  0  0  0  0
   37.7766   -3.3613   15.3778 C   0  0  0  0  0  0  0  0  0  0  0  0
   36.8582   -3.6056   14.3012 C   0  0  0  0  0  0  0  0  0  0  0  0
   36.5478   -2.6361   13.4046 N   0  0  0  0  0  0  0  0  0  0  0  0
   36.2499   -4.8491   14.2791 N   0  0  0  0  0  0  0  0  0  0  0  0
   36.5088   -5.7311   15.2402 C   0  0  0  0  0  0  0  0  0  0  0  0
   37.3149   -5.6292   16.2831 N   0  0  0  0  0  0  0  0  0  0  0  0
   37.9490   -4.4015   16.3014 C   0  0  0  0  0  0  0  0  0  0  0  0
   35.8863   -2.8341   12.6404 H   0  0  0  0  0  0  0  0  0  0  0  0
   36.9736   -1.7020   13.4881 H   0  0  0  0  0  0  0  0  0  0  0  0
   38.1632   -5.9580   20.8296 C   0  0  0  0  0  0  0  0  0  0  0  0
   37.2871   -4.8922   21.2354 O   0  0  0  0  0  0  0  0  0  0  0  0
   36.9720   -5.1959   22.8445 P   0  0  0  0  0  0  0  0  0  0  0  0
   35.6622   -4.4829   23.1072 O   0  0  0  0  0  0  0  0  0  0  0  0
   37.1300   -6.7031   23.1195 O   0  0  0  0  0  0  0  0  0  0  0  0
   38.1528   -4.1565   23.5785 O   0  0  0  0  0  0  0  0  0  0  0  0
   38.2955   -2.6259   23.9194 P   0  0  0  0  0  0  0  0  0  0  0  0
   38.1206   -1.8879   22.6736 O   0  0  0  0  0  0  0  0  0  0  0  0
   39.6893   -2.6608   24.3901 O   0  0  0  0  0  0  0  0  0  0  0  0
   37.2632   -2.3307   24.9192 O   0  0  0  0  0  0  0  0  0  0  0  0
   41.8159   -4.1697   19.2518 O   0  0  0  0  0  0  0  0  0  0  0  0
   42.8865   -3.2793   18.3741 P   0  0  0  0  0  0  0  0  0  0  0  0
   42.8997   -3.8109   16.9842 O   0  0  0  0  0  0  0  0  0  0  0  0
   42.3962   -1.8663   18.5127 O   0  0  0  0  0  0  0  0  0  0  0  0
   43.9956   -3.7176   19.2752 O   0  0  0  0  0  0  0  0  0  0  0  0
 26 25  1  0  0  0
 26 29  2  0  0  0
 26 28  2  0  0  0
 26 27  2  0  0  0
 25 22  1  0  0  0
 22 21  1  0  0  0
 22 24  2  0  0  0
 22 23  2  0  0  0
 21 20  1  0  0  0
 20  1  1  0  0  0
  1  3  1  0  0  0
  1  2  1  0  0  0
  2  6  1  0  0  0
  6  8  1  0  0  0
  6  5  1  0  0  0
  5 30  1  0  0  0
  5  3  1  0  0  0
  3  4  1  0  0  0
 30 31  1  0  0  0
 31 34  2  0  0  0
 31 33  2  0  0  0
 31 32  2  0  0  0
  8 17  1  0  0  0
  8  9  1  0  0  0
  9 10  2  0  0  0
 10 11  1  0  0  0
 11 17  2  0  0  0
 11 12  1  0  0  0
 12 14  2  0  0  0
 12 13  1  0  0  0
 14 15  1  0  0  0
 15 16  2  0  0  0
 16 17  1  0  0  0
  4  7  1  0  0  0
 13 18  1  0  0  0
 13 19  1  0  0  0
M  END
> <minimizedAffinity>
-6.40092

$$$$
1afl_ligand


 34 36  0  0  0  0  0  0  0  0999 V2000
   39.4209   -4.6894   20.9860 C   0  0  0  0  0  0  0  0  0  0  0  0
   38.5791   -4.9173   19.8814 O   0  0  0  0  0  0  0  0  0  0  0  0
   40.6863   -3.8261   20.5278 C   0  0  0  0  0  0  0  0  0  0  0  0
   41.9988   -4.0849   21.2441 O   0  0  0  0  0  0  0  0  0  0  0  0
   40.7894   -4.4055   19.1294 C   0  0  0  0  0  0  0  0  0  0  0  0
   39.3890   -4.8876   18.7407 C   0  0  0  0  0  0  0  0  0  0  0  0
   42.1551   -5.0210   21.2880 H   0  0  0  0  0  0  0  0  0  0  0  0
   38.7527   -4.1807   17.5362 N   0  0  0  0  0  0  0  0  0  0  0  0
   39.2797   -2.9878   17.0076 C   0  0  0  0  0  0  0  0  0  0  0  0
   38.7847   -2.5925   15.8760 N   0  0  0  0  0  0  0  0  0  0  0  0
   37.8061   -3.6152   15.5960 C   0  0  0  0  0  0  0  0  0  0  0  0
   36.9357   -3.8246   14.4732 C   0  0  0  0  0  0  0  0  0  0  0  0
   36.8263   -2.9033   13.4836 N   0  0  0  0  0  0  0  0  0  0  0  0
   36.1596   -4.9709   14.4992 N   0  0  0  0  0  0  0  0  0  0  0  0
   36.2263   -5.7933   15.5423 C   0  0  0  0  0  0  0  0  0  0  0  0
   36.9678   -5.7120   16.6338 N   0  0  0  0  0  0  0  0  0  0  0  0
   37.7673   -4.5852   16.6072 C   0  0  0  0  0  0  0  0  0  0  0  0
   36.1955   -3.0748   12.6877 H   0  0  0  0  0  0  0  0  0  0  0  0
   37.3741   -2.0322   13.5281 H   0  0  0  0  0  0  0  0  0  0  0  0
   38.3622   -4.0827   21.7496 C   0  0  0  0  0  0  0  0  0  0  0  0
   38.6963   -2.7594   22.2029 O   0  0  0  0  0  0  0  0  0  0  0  0
   37.5650   -2.4196   23.3800 P   0  0  0  0  0  0  0  0  0  0  0  0
   36.2471   -2.8307   22.7577 O   0  0  0  0  0  0  0  0  0  0  0  0
   38.0330   -3.0108   24.7230 O   0  0  0  0  0  0  0  0  0  0  0  0
   37.5393   -0.6871   23.2743 O   0  0  0  0  0  0  0  0  0  0  0  0
   38.1438    0.5303   24.0692 P   0  0  0  0  0  0  0  0  0  0  0  0
   39.4956    0.1563   24.4695 O   0  0  0  0  0  0  0  0  0  0  0  0
   37.1815    0.5327   25.1824 O   0  0  0  0  0  0  0  0  0  0  0  0
   38.1053    1.6767   23.1544 O   0  0  0  0  0  0  0  0  0  0  0  0
   41.5523   -5.5948   19.1870 O   0  0  0  0  0  0  0  0  0  0  0  0
   42.7752   -5.7342   18.0942 P   0  0  0  0  0  0  0  0  0  0  0  0
   42.7864   -7.1340   17.5892 O   0  0  0  0  0  0  0  0  0  0  0  0
   42.4726   -4.6856   17.0622 O   0  0  0  0  0  0  0  0  0  0  0  0
   43.7691   -5.3918   19.1568 O   0  0  0  0  0  0  0  0  0  0  0  0
 26 25  1  0  0  0
 26 29  2  0  0  0
 26 28  2  0  0  0
 26 27  2  0  0  0
 25 22  1  0  0  0
 22 21  1  0  0  0
 22 24  2  0  0  0
 22 23  2  0  0  0
 21 20  1  0  0  0
 20  1  1  0  0  0
  1  3  1  0  0  0
  1  2  1  0  0  0
  2  6  1  0  0  0
  6  8  1  0  0  0
  6  5  1  0  0  0
  5 30  1  0  0  0
  5  3  1  0  0  0
  3  4  1  0  0  0
 30 31  1  0  0  0
 31 34  2  0  0  0
 31 33  2  0  0  0
 31 32  2  0  0  0
  8 17  1  0  0  0
  8  9  1  0  0  0
  9 10  2  0  0  0
 10 11  1  0  0  0
 11 17  2  0  0  0
 11 12  1  0  0  0
 12 14  2  0  0  0
 12 13  1  0  0  0
 14 15  1  0  0  0
 15 16  2  0  0  0
 16 17  1  0  0  0
  4  7  1  0  0  0
 13 18  1  0  0  0
 13 19  1  0  0  0
M  END
> <minimizedAffinity>
-6.39675

$$$$
1afl_ligand


 34 36  0  0  0  0  0  0  0  0999 V2000
   38.5201   -2.2296   23.9259 C   0  0  0  0  0  0  0  0  0  0  0  0
   39.6874   -1.5115   24.2457 O   0  0  0  0  0  0  0  0  0  0  0  0
   37.5918   -1.3471   22.9688 C   0  0  0  0  0  0  0  0  0  0  0  0
   36.0907   -1.5246   23.1022 O   0  0  0  0  0  0  0  0  0  0  0  0
   37.9631   -0.0025   23.5654 C   0  0  0  0  0  0  0  0  0  0  0  0
   39.3614   -0.1527   24.1710 C   0  0  0  0  0  0  0  0  0  0  0  0
   35.8499   -1.4960   24.0208 H   0  0  0  0  0  0  0  0  0  0  0  0
   40.4553    0.7226   23.5443 N   0  0  0  0  0  0  0  0  0  0  0  0
   41.3534    1.4696   24.3287 C   0  0  0  0  0  0  0  0  0  0  0  0
   42.3533    2.0079   23.7024 N   0  0  0  0  0  0  0  0  0  0  0  0
   42.1178    1.5971   22.3395 C   0  0  0  0  0  0  0  0  0  0  0  0
   42.8735    1.7991   21.1353 C   0  0  0  0  0  0  0  0  0  0  0  0
   43.9628    2.6072   21.1129 N   0  0  0  0  0  0  0  0  0  0  0  0
   42.3837    1.1941   19.9903 N   0  0  0  0  0  0  0  0  0  0  0  0
   41.2533    0.4953   20.0414 C   0  0  0  0  0  0  0  0  0  0  0  0
   40.4627    0.2451   21.0710 N   0  0  0  0  0  0  0  0  0  0  0  0
   40.9556    0.8215   22.2261 C   0  0  0  0  0  0  0  0  0  0  0  0
   44.4897    2.7373   20.2375 H   0  0  0  0  0  0  0  0  0  0  0  0
   44.2630    3.0908   21.9714 H   0  0  0  0  0  0  0  0  0  0  0  0
   39.2699   -3.3378   23.3950 C   0  0  0  0  0  0  0  0  0  0  0  0
   38.6758   -4.6088   23.7110 O   0  0  0  0  0  0  0  0  0  0  0  0
   37.8062   -5.0174   22.3481 P   0  0  0  0  0  0  0  0  0  0  0  0
   36.3728   -4.6909   22.7106 O   0  0  0  0  0  0  0  0  0  0  0  0
   38.4781   -4.3962   21.1092 O   0  0  0  0  0  0  0  0  0  0  0  0
   37.8689   -6.7483   22.4650 O   0  0  0  0  0  0  0  0  0  0  0  0
   37.7246   -7.9802   21.4950 P   0  0  0  0  0  0  0  0  0  0  0  0
   38.9227   -8.7970   21.6531 O   0  0  0  0  0  0  0  0  0  0  0  0
   37.6894   -7.2287   20.2304 O   0  0  0  0  0  0  0  0  0  0  0  0
   36.4933   -8.6723   21.8918 O   0  0  0  0  0  0  0  0  0  0  0  0
   37.1342    0.2406   24.6851 O   0  0  0  0  0  0  0  0  0  0  0  0
   36.6530    1.7976   24.9160 P   0  0  0  0  0  0  0  0  0  0  0  0
   36.4188    2.4118   23.5809 O   0  0  0  0  0  0  0  0  0  0  0  0
   35.4361    1.6848   25.7892 O   0  0  0  0  0  0  0  0  0  0  0  0
   37.9554    2.1055   25.5817 O   0  0  0  0  0  0  0  0  0  0  0  0
 26 25  1  0  0  0
 26 29  2  0  0  0
 26 28  2  0  0  0
 26 27  2  0  0  0
 25 22  1  0  0  0
 22 21  1  0  0  0
 22 24  2  0  0  0
 22 23  2  0  0  0
 21 20  1  0  0  0
 20  1  1  0  0  0
  1  3  1  0  0  0
  1  2  1  0  0  0
  2  6  1  0  0  0
  6  8  1  0  0  0
  6  5  1  0  0  0
  5 30  1  0  0  0
  5  3  1  0  0  0
  3  4  1  0  0  0
 30 31  1  0  0  0
 31 34  2  0  0  0
 31 33  2  0  0  0
 31 32  2  0  0  0
  8 17  1  0  0  0
  8  9  1  0  0  0
  9 10  2  0  0  0
 10 11  1  0  0  0
 11 17  2  0  0  0
 11 12  1  0  0  0
 12 14  2  0  0  0
 12 13  1  0  0  0
 14 15  1  0  0  0
 15 16  2  0  0  0
 16 17  1  0  0  0
  4  7  1  0  0  0
 13 18  1  0  0  0
 13 19  1  0  0  0
M  END
> <minimizedAffinity>
-6.07617

$$$$
1afl_ligand


 34 36  0  0  0  0  0  0  0  0999 V2000
   38.5945   -5.3264   21.7866 C   0  0  0  0  0  0  0  0  0  0  0  0
   37.6785   -5.4338   20.7236 O   0  0  0  0  0  0  0  0  0  0  0  0
   39.9139   -6.1626   21.4453 C   0  0  0  0  0  0  0  0  0  0  0  0
   40.6466   -6.8072   22.6072 O   0  0  0  0  0  0  0  0  0  0  0  0
   39.2209   -7.2585   20.6576 C   0  0  0  0  0  0  0  0  0  0  0  0
   37.9328   -6.6555   20.0905 C   0  0  0  0  0  0  0  0  0  0  0  0
   40.0227   -7.2633   23.1598 H   0  0  0  0  0  0  0  0  0  0  0  0
   37.8418   -6.6009   18.5594 N   0  0  0  0  0  0  0  0  0  0  0  0
   37.1404   -7.5704   17.8190 C   0  0  0  0  0  0  0  0  0  0  0  0
   36.9621   -7.3143   16.5602 N   0  0  0  0  0  0  0  0  0  0  0  0
   37.6162   -6.0368   16.4121 C   0  0  0  0  0  0  0  0  0  0  0  0
   37.7463   -5.1534   15.2874 C   0  0  0  0  0  0  0  0  0  0  0  0
   37.3298   -5.5205   14.0497 N   0  0  0  0  0  0  0  0  0  0  0  0
   38.3902   -3.9498   15.5192 N   0  0  0  0  0  0  0  0  0  0  0  0
   38.8735   -3.6785   16.7282 C   0  0  0  0  0  0  0  0  0  0  0  0
   38.8327   -4.4016   17.8342 N   0  0  0  0  0  0  0  0  0  0  0  0
   38.1682   -5.5945   17.6223 C   0  0  0  0  0  0  0  0  0  0  0  0
   37.4331   -4.8703   13.2577 H   0  0  0  0  0  0  0  0  0  0  0  0
   36.9102   -6.4495   13.9020 H   0  0  0  0  0  0  0  0  0  0  0  0
   38.6044   -3.8886   21.7178 C   0  0  0  0  0  0  0  0  0  0  0  0
   37.7353   -3.2829   22.6905 O   0  0  0  0  0  0  0  0  0  0  0  0
   38.7541   -2.4043   23.6759 P   0  0  0  0  0  0  0  0  0  0  0  0
   38.7947   -3.1947   24.9668 O   0  0  0  0  0  0  0  0  0  0  0  0
   40.0440   -2.0673   22.9048 O   0  0  0  0  0  0  0  0  0  0  0  0
   37.7170   -1.0646   24.0543 O   0  0  0  0  0  0  0  0  0  0  0  0
   37.7713    0.5059   23.9543 P   0  0  0  0  0  0  0  0  0  0  0  0
   38.1879    0.8379   22.5964 O   0  0  0  0  0  0  0  0  0  0  0  0
   38.8211    0.7285   24.9611 O   0  0  0  0  0  0  0  0  0  0  0  0
   36.4236    0.9843   24.2817 O   0  0  0  0  0  0  0  0  0  0  0  0
   38.7628   -8.2452   21.5612 O   0  0  0  0  0  0  0  0  0  0  0  0
   39.1193   -9.8070   21.1830 P   0  0  0  0  0  0  0  0  0  0  0  0
   37.9392  -10.6464   21.5254 O   0  0  0  0  0  0  0  0  0  0  0  0
   39.4709   -9.7647   19.7232 O   0  0  0  0  0  0  0  0  0  0  0  0
   40.2454   -9.7920   22.1658 O   0  0  0  0  0  0  0  0  0  0  0  0
 26 25  1  0  0  0
 26 29  2  0  0  0
 26 28  2  0  0  0
 26 27  2  0  0  0
 25 22  1  0  0  0
 22 21  1  0  0  0
 22 24  2  0  0  0
 22 23  2  0  0  0
 21 20  1  0  0  0
 20  1  1  0  0  0
  1  3  1  0  0  0
  1  2  1  0  0  0
  2  6  1  0  0  0
  6  8  1  0  0  0
  6  5  1  0  0  0
  5 30  1  0  0  0
  5  3  1  0  0  0
  3  4  1  0  0  0
 30 31  1  0  0  0
 31 34  2  0  0  0
 31 33  2  0  0  0
 31 32  2  0  0  0
  8 17  1  0  0  0
  8  9  1  0  0  0
  9 10  2  0  0  0
 10 11  1  0  0  0
 11 17  2  0  0  0
 11 12  1  0  0  0
 12 14  2  0  0  0
 12 13  1  0  0  0
 14 15  1  0  0  0
 15 16  2  0  0  0
 16 17  1  0  0  0
  4  7  1  0  0  0
 13 18  1  0  0  0
 13 19  1  0  0  0
M  END
> <minimizedAffinity>
-5.95536

$$$$
1afl_ligand


 34 36  0  0  0  0  0  0  0  0999 V2000
   41.0860   -1.8806   20.2137 C   0  0  0  0  0  0  0  0  0  0  0  0
   40.4120   -3.0072   19.7064 O   0  0  0  0  0  0  0  0  0  0  0  0
   41.1687   -0.7509   19.0852 C   0  0  0  0  0  0  0  0  0  0  0  0
   42.3930    0.1455   19.0894 O   0  0  0  0  0  0  0  0  0  0  0  0
   41.2808   -1.6978   17.9052 C   0  0  0  0  0  0  0  0  0  0  0  0
   40.6151   -3.0123   18.3218 C   0  0  0  0  0  0  0  0  0  0  0  0
   43.1747   -0.3883   19.1709 H   0  0  0  0  0  0  0  0  0  0  0  0
   39.3801   -3.4200   17.5069 N   0  0  0  0  0  0  0  0  0  0  0  0
   38.9840   -2.7199   16.3524 C   0  0  0  0  0  0  0  0  0  0  0  0
   38.0523   -3.2703   15.6377 N   0  0  0  0  0  0  0  0  0  0  0  0
   37.7679   -4.4743   16.3803 C   0  0  0  0  0  0  0  0  0  0  0  0
   36.8774   -5.5705   16.1206 C   0  0  0  0  0  0  0  0  0  0  0  0
   35.9992   -5.5369   15.0872 N   0  0  0  0  0  0  0  0  0  0  0  0
   36.9079   -6.6181   17.0253 N   0  0  0  0  0  0  0  0  0  0  0  0
   37.7136   -6.5586   18.0818 C   0  0  0  0  0  0  0  0  0  0  0  0
   38.5645   -5.6127   18.4408 N   0  0  0  0  0  0  0  0  0  0  0  0
   38.5630   -4.5730   17.5305 C   0  0  0  0  0  0  0  0  0  0  0  0
   35.3700   -6.3349   14.9200 H   0  0  0  0  0  0  0  0  0  0  0  0
   35.9618   -4.7133   14.4699 H   0  0  0  0  0  0  0  0  0  0  0  0
   40.1676   -1.7464   21.3139 C   0  0  0  0  0  0  0  0  0  0  0  0
   40.2097   -0.4394   21.9124 O   0  0  0  0  0  0  0  0  0  0  0  0
   39.0593   -0.4916   23.1186 P   0  0  0  0  0  0  0  0  0  0  0  0
   39.8652   -0.6079   24.3952 O   0  0  0  0  0  0  0  0  0  0  0  0
   38.0513    0.6544   22.9119 O   0  0  0  0  0  0  0  0  0  0  0  0
   38.4501   -2.0991   22.8770 O   0  0  0  0  0  0  0  0  0  0  0  0
   37.2111   -2.9502   23.3460 P   0  0  0  0  0  0  0  0  0  0  0  0
   36.0222   -2.3411   22.7604 O   0  0  0  0  0  0  0  0  0  0  0  0
   37.3440   -2.7068   24.7911 O   0  0  0  0  0  0  0  0  0  0  0  0
   37.4532   -4.3192   22.8771 O   0  0  0  0  0  0  0  0  0  0  0  0
   42.6402   -2.0473   17.7326 O   0  0  0  0  0  0  0  0  0  0  0  0
   43.2749   -1.8020   16.2339 P   0  0  0  0  0  0  0  0  0  0  0  0
   42.1684   -1.8918   15.2429 O   0  0  0  0  0  0  0  0  0  0  0  0
   43.9406   -0.4587   16.3277 O   0  0  0  0  0  0  0  0  0  0  0  0
   44.1360   -3.0129   16.3962 O   0  0  0  0  0  0  0  0  0  0  0  0
 26 25  1  0  0  0
 26 29  2  0  0  0
 26 28  2  0  0  0
 26 27  2  0  0  0
 25 22  1  0  0  0
 22 21  1  0  0  0
 22 24  2  0  0  0
 22 23  2  0  0  0
 21 20  1  0  0  0
 20  1  1  0  0  0
  1  3  1  0  0  0
  1  2  1  0  0  0
  2  6  1  0  0  0
  6  8  1  0  0  0
  6  5  1  0  0  0
  5 30  1  0  0  0
  5  3  1  0  0  0
  3  4  1  0  0  0
 30 31  1  0  0  0
 31 34  2  0  0  0
 31 33  2  0  0  0
 31 32  2  0  0  0
  8 17  1  0  0  0
  8  9  1  0  0  0
  9 10  2  0  0  0
 10 11  1  0  0  0
 11 17  2  0  0  0
 11 12  1  0  0  0
 12 14  2  0  0  0
 12 13  1  0  0  0
 14 15  1  0  0  0
 15 16  2  0  0  0
 16 17  1  0  0  0
  4  7  1  0  0  0
 13 18  1  0  0  0
 13 19  1  0  0  0
M  END
> <minimizedAffinity>
-5.88432

$$$$
1afl_ligand


 34 36  0  0  0  0  0  0  0  0999 V2000
   38.9605   -4.9990   18.7988 C   0  0  0  0  0  0  0  0  0  0  0  0
   38.3395   -6.2454   19.0022 O   0  0  0  0  0  0  0  0  0  0  0  0
   39.7382   -4.5634   20.1262 C   0  0  0  0  0  0  0  0  0  0  0  0
   39.8154   -3.0785   20.4293 O   0  0  0  0  0  0  0  0  0  0  0  0
   38.7678   -5.1955   21.1063 C   0  0  0  0  0  0  0  0  0  0  0  0
   38.0814   -6.3515   20.3734 C   0  0  0  0  0  0  0  0  0  0  0  0
   38.9532   -2.6914   20.3325 H   0  0  0  0  0  0  0  0  0  0  0  0
   38.3326   -7.7498   20.9541 N   0  0  0  0  0  0  0  0  0  0  0  0
   37.4663   -8.8292   20.7005 C   0  0  0  0  0  0  0  0  0  0  0  0
   37.8822   -9.9998   21.0728 N   0  0  0  0  0  0  0  0  0  0  0  0
   39.1684   -9.6975   21.6526 C   0  0  0  0  0  0  0  0  0  0  0  0
   40.1893  -10.5408   22.2083 C   0  0  0  0  0  0  0  0  0  0  0  0
   39.9844  -11.8690   22.3928 N   0  0  0  0  0  0  0  0  0  0  0  0
   41.3532   -9.9128   22.6181 N   0  0  0  0  0  0  0  0  0  0  0  0
   41.4668   -8.5920   22.5115 C   0  0  0  0  0  0  0  0  0  0  0  0
   40.6073   -7.7076   22.0352 N   0  0  0  0  0  0  0  0  0  0  0  0
   39.4514   -8.3257   21.5977 C   0  0  0  0  0  0  0  0  0  0  0  0
   40.7312  -12.4545   22.7931 H   0  0  0  0  0  0  0  0  0  0  0  0
   39.0820  -12.2919   22.1326 H   0  0  0  0  0  0  0  0  0  0  0  0
   39.6871   -5.4757   17.6513 C   0  0  0  0  0  0  0  0  0  0  0  0
   39.9587   -4.4342   16.6975 O   0  0  0  0  0  0  0  0  0  0  0  0
   39.7264   -5.1536   15.2111 P   0  0  0  0  0  0  0  0  0  0  0  0
   41.0301   -4.9192   14.4775 O   0  0  0  0  0  0  0  0  0  0  0  0
   39.1684   -6.5747   15.4141 O   0  0  0  0  0  0  0  0  0  0  0  0
   38.6445   -4.0026   14.4913 O   0  0  0  0  0  0  0  0  0  0  0  0
   37.0931   -3.7348   14.4592 P   0  0  0  0  0  0  0  0  0  0  0  0
   36.8985   -2.3861   13.9389 O   0  0  0  0  0  0  0  0  0  0  0  0
   36.8466   -3.8471   15.9055 O   0  0  0  0  0  0  0  0  0  0  0  0
   36.5150   -4.7765   13.6031 O   0  0  0  0  0  0  0  0  0  0  0  0
   37.7172   -4.2824   21.3561 O   0  0  0  0  0  0  0  0  0  0  0  0
   37.4552   -3.8802   22.9305 P   0  0  0  0  0  0  0  0  0  0  0  0
   36.0079   -4.0686   23.2209 O   0  0  0  0  0  0  0  0  0  0  0  0
   38.3829   -4.7748   23.7019 O   0  0  0  0  0  0  0  0  0  0  0  0
   37.9122   -2.4842   22.6539 O   0  0  0  0  0  0  0  0  0  0  0  0
 26 25  1  0  0  0
 26 29  2  0  0  0
 26 28  2  0  0  0
 26 27  2  0  0  0
 25 22  1  0  0  0
 22 21  1  0  0  0
 22 24  2  0  0  0
 22 23  2  0  0  0
 21 20  1  0  0  0
 20  1  1  0  0  0
  1  3  1  0  0  0
  1  2  1  0  0  0
  2  6  1  0  0  0
  6  8  1  0  0  0
  6  5  1  0  0  0
  5 30  1  0  0  0
  5  3  1  0  0  0
  3  4  1  0  0  0
 30 31  1  0  0  0
 31 34  2  0  0  0
 31 33  2  0  0  0
 31 32  2  0  0  0
  8 17  1  0  0  0
  8  9  1  0  0  0
  9 10  2  0  0  0
 10 11  1  0  0  0
 11 17  2  0  0  0
 11 12  1  0  0  0
 12 14  2  0  0  0
 12 13  1  0  0  0
 14 15  1  0  0  0
 15 16  2  0  0  0
 16 17  1  0  0  0
  4  7  1  0  0  0
 13 18  1  0  0  0
 13 19  1  0  0  0
M  END
> <minimizedAffinity>
-5.77565

$$$$
1afl_ligand


 34 36  0  0  0  0  0  0  0  0999 V2000
   39.2261   -6.2908   21.7470 C   0  0  0  0  0  0  0  0  0  0  0  0
   40.2879   -5.5136   21.2477 O   0  0  0  0  0  0  0  0  0  0  0  0
   37.8411   -5.5321   21.4965 C   0  0  0  0  0  0  0  0  0  0  0  0
   36.7429   -5.7357   22.5237 O   0  0  0  0  0  0  0  0  0  0  0  0
   38.3862   -4.1258   21.6604 C   0  0  0  0  0  0  0  0  0  0  0  0
   39.8739   -4.1780   21.3017 C   0  0  0  0  0  0  0  0  0  0  0  0
   37.1020   -5.6231   23.3960 H   0  0  0  0  0  0  0  0  0  0  0  0
   40.2950   -3.3398   20.0870 N   0  0  0  0  0  0  0  0  0  0  0  0
   41.2354   -2.2981   20.1896 C   0  0  0  0  0  0  0  0  0  0  0  0
   41.6611   -1.7959   19.0723 N   0  0  0  0  0  0  0  0  0  0  0  0
   40.9323   -2.5655   18.0934 C   0  0  0  0  0  0  0  0  0  0  0  0
   40.9668   -2.5656   16.6578 C   0  0  0  0  0  0  0  0  0  0  0  0
   41.6808   -1.6405   15.9690 N   0  0  0  0  0  0  0  0  0  0  0  0
   40.1712   -3.5031   16.0213 N   0  0  0  0  0  0  0  0  0  0  0  0
   39.4082   -4.3223   16.7393 C   0  0  0  0  0  0  0  0  0  0  0  0
   39.2753   -4.4173   18.0512 N   0  0  0  0  0  0  0  0  0  0  0  0
   40.0854   -3.5041   18.6989 C   0  0  0  0  0  0  0  0  0  0  0  0
   41.6909   -1.6599   14.9392 H   0  0  0  0  0  0  0  0  0  0  0  0
   42.2128   -0.9187   16.4757 H   0  0  0  0  0  0  0  0  0  0  0  0
   39.5922   -7.4254   20.9403 C   0  0  0  0  0  0  0  0  0  0  0  0
   39.2472   -8.6772   21.5586 O   0  0  0  0  0  0  0  0  0  0  0  0
   37.9045   -9.2041   20.7217 P   0  0  0  0  0  0  0  0  0  0  0  0
   38.2167  -10.6483   20.3907 O   0  0  0  0  0  0  0  0  0  0  0  0
   36.6338   -8.8204   21.5028 O   0  0  0  0  0  0  0  0  0  0  0  0
   38.1536   -8.3805   19.2141 O   0  0  0  0  0  0  0  0  0  0  0  0
   37.3461   -8.1267   17.8863 P   0  0  0  0  0  0  0  0  0  0  0  0
   38.3156   -8.0506   16.7992 O   0  0  0  0  0  0  0  0  0  0  0  0
   36.7728   -6.8223   18.2537 O   0  0  0  0  0  0  0  0  0  0  0  0
   36.4119   -9.2502   17.7537 O   0  0  0  0  0  0  0  0  0  0  0  0
   38.3816   -3.7958   23.0355 O   0  0  0  0  0  0  0  0  0  0  0  0
   37.4274   -2.5311   23.4822 P   0  0  0  0  0  0  0  0  0  0  0  0
   36.1308   -2.6536   22.7621 O   0  0  0  0  0  0  0  0  0  0  0  0
   37.3401   -2.6415   24.9776 O   0  0  0  0  0  0  0  0  0  0  0  0
   38.4258   -1.5731   22.9169 O   0  0  0  0  0  0  0  0  0  0  0  0
 26 25  1  0  0  0
 26 29  2  0  0  0
 26 28  2  0  0  0
 26 27  2  0  0  0
 25 22  1  0  0  0
 22 21  1  0  0  0
 22 24  2  0  0  0
 22 23  2  0  0  0
 21 20  1  0  0  0
 20  1  1  0  0  0
  1  3  1  0  0  0
  1  2  1  0  0  0
  2  6  1  0  0  0
  6  8  1  0  0  0
  6  5  1  0  0  0
  5 30  1  0  0  0
  5  3  1  0  0  0
  3  4  1  0  0  0
 30 31  1  0  0  0
 31 34  2  0  0  0
 31 33  2  0  0  0
 31 32  2  0  0  0
  8 17  1  0  0  0
  8  9  1  0  0  0
  9 10  2  0  0  0
 10 11  1  0  0  0
 11 17  2  0  0  0
 11 12  1  0  0  0
 12 14  2  0  0  0
 12 13  1  0  0  0
 14 15  1  0  0  0
 15 16  2  0  0  0
 16 17  1  0  0  0
  4  7  1  0  0  0
 13 18  1  0  0  0
 13 19  1  0  0  0
M  END
> <minimizedAffinity>
-5.77469

$$$$
1afl_ligand


 34 36  0  0  0  0  0  0  0  0999 V2000
   38.3982   -4.8642   22.8050 C   0  0  0  0  0  0  0  0  0  0  0  0
   37.5469   -5.2397   21.7491 O   0  0  0  0  0  0  0  0  0  0  0  0
   39.9216   -5.0777   22.3686 C   0  0  0  0  0  0  0  0  0  0  0  0
   40.9057   -5.4707   23.4547 O   0  0  0  0  0  0  0  0  0  0  0  0
   39.6780   -6.2908   21.4907 C   0  0  0  0  0  0  0  0  0  0  0  0
   38.2300   -6.2045   21.0003 C   0  0  0  0  0  0  0  0  0  0  0  0
   40.5402   -6.1801   23.9702 H   0  0  0  0  0  0  0  0  0  0  0  0
   38.0488   -6.0665   19.4826 N   0  0  0  0  0  0  0  0  0  0  0  0
   38.5931   -4.9877   18.7615 C   0  0  0  0  0  0  0  0  0  0  0  0
   38.5492   -5.0798   17.4687 N   0  0  0  0  0  0  0  0  0  0  0  0
   37.8985   -6.3529   17.2745 C   0  0  0  0  0  0  0  0  0  0  0  0
   37.5842   -7.0952   16.0861 C   0  0  0  0  0  0  0  0  0  0  0  0
   37.7690   -6.5630   14.8521 N   0  0  0  0  0  0  0  0  0  0  0  0
   37.0097   -8.3413   16.2705 N   0  0  0  0  0  0  0  0  0  0  0  0
   36.7526   -8.7774   17.5003 C   0  0  0  0  0  0  0  0  0  0  0  0
   36.9780   -8.1952   18.6656 N   0  0  0  0  0  0  0  0  0  0  0  0
   37.5765   -6.9612   18.4956 C   0  0  0  0  0  0  0  0  0  0  0  0
   37.5366   -7.1140   14.0135 H   0  0  0  0  0  0  0  0  0  0  0  0
   38.1418   -5.6079   14.7537 H   0  0  0  0  0  0  0  0  0  0  0  0
   37.8376   -3.5401   22.8718 C   0  0  0  0  0  0  0  0  0  0  0  0
   38.1342   -2.8765   24.1127 O   0  0  0  0  0  0  0  0  0  0  0  0
   38.9136   -1.4724   23.6634 P   0  0  0  0  0  0  0  0  0  0  0  0
   40.1094   -1.3990   24.5894 O   0  0  0  0  0  0  0  0  0  0  0  0
   39.0860   -1.4523   22.1330 O   0  0  0  0  0  0  0  0  0  0  0  0
   37.8170   -0.3006   24.3251 O   0  0  0  0  0  0  0  0  0  0  0  0
   37.6322    1.2627   24.2876 P   0  0  0  0  0  0  0  0  0  0  0  0
   38.3241    1.8073   25.4504 O   0  0  0  0  0  0  0  0  0  0  0  0
   36.1662    1.2880   24.4119 O   0  0  0  0  0  0  0  0  0  0  0  0
   38.1993    1.7119   23.0112 O   0  0  0  0  0  0  0  0  0  0  0  0
   39.6911   -7.4480   22.3035 O   0  0  0  0  0  0  0  0  0  0  0  0
   40.7042   -8.6588   21.8378 P   0  0  0  0  0  0  0  0  0  0  0  0
   39.9409   -9.9359   21.8641 O   0  0  0  0  0  0  0  0  0  0  0  0
   41.1919   -8.2343   20.4820 O   0  0  0  0  0  0  0  0  0  0  0  0
   41.5875   -8.3757   23.0099 O   0  0  0  0  0  0  0  0  0  0  0  0
 26 25  1  0  0  0
 26 29  2  0  0  0
 26 28  2  0  0  0
 26 27  2  0  0  0
 25 22  1  0  0  0
 22 21  1  0  0  0
 22 24  2  0  0  0
 22 23  2  0  0  0
 21 20  1  0  0  0
 20  1  1  0  0  0
  1  3  1  0  0  0
  1  2  1  0  0  0
  2  6  1  0  0  0
  6  8  1  0  0  0
  6  5  1  0  0  0
  5 30  1  0  0  0
  5  3  1  0  0  0
  3  4  1  0  0  0
 30 31  1  0  0  0
 31 34  2  0  0  0
 31 33  2  0  0  0
 31 32  2  0  0  0
  8 17  1  0  0  0
  8  9  1  0  0  0
  9 10  2  0  0  0
 10 11  1  0  0  0
 11 17  2  0  0  0
 11 12  1  0  0  0
 12 14  2  0  0  0
 12 13  1  0  0  0
 14 15  1  0  0  0
 15 16  2  0  0  0
 16 17  1  0  0  0
  4  7  1  0  0  0
 13 18  1  0  0  0
 13 19  1  0  0  0
M  END
> <minimizedAffinity>
-5.73548

$$$$
