1aj7_ligand


 20 20  0  0  0  0  0  0  0  0999 V2000
   16.8970    8.2409   36.0873 O   0  0  0  0  0  0  0  0  0  0  0  0
   18.3064    5.9432   32.8145 C   0  0  0  0  0  0  0  0  0  0  0  0
   18.6112    7.3333   32.9010 C   0  0  0  0  0  0  0  0  0  0  0  0
   18.1202    8.1034   33.9766 C   0  0  0  0  0  0  0  0  0  0  0  0
   17.3281    7.4893   34.9724 C   0  0  0  0  0  0  0  0  0  0  0  0
   17.0158    6.1107   34.8926 C   0  0  0  0  0  0  0  0  0  0  0  0
   17.5020    5.3320   33.8237 C   0  0  0  0  0  0  0  0  0  0  0  0
   18.8151    5.1610   31.7233 N   0  0  0  0  0  0  0  0  0  0  0  0
   18.3185    3.8525   31.5758 O   0  0  0  0  0  0  0  0  0  0  0  0
   19.7623    5.7798   30.8898 O   0  0  0  0  0  0  0  0  0  0  0  0
   17.7602    8.2343   37.3535 P   0  0  0  0  0  0  0  0  0  0  0  0
   18.9529    8.9488   37.0178 O   0  0  0  0  0  0  0  0  0  0  0  0
   18.1869    6.8916   37.5772 O   0  0  0  0  0  0  0  0  0  0  0  0
   16.9601    8.8999   38.8193 C   0  0  0  0  0  0  0  0  0  0  0  0
   17.7138    8.4165   40.0577 C   0  0  0  0  0  0  0  0  0  0  0  0
   16.8468    8.1083   41.2874 C   0  0  0  0  0  0  0  0  0  0  0  0
   17.7135    7.5540   42.4280 C   0  0  0  0  0  0  0  0  0  0  0  0
   17.5418    6.0696   42.7370 C   0  0  0  0  0  0  0  0  0  0  0  0
   16.5630    5.4195   42.5533 O   0  0  0  0  0  0  0  0  0  0  0  0
   18.6897    5.6004   43.2616 O   0  0  0  0  0  0  0  0  0  0  0  0
  2  7  2  0  0  0
  2  3  1  0  0  0
  2  8  1  0  0  0
  8 10  2  0  0  0
  8  9  2  0  0  0
  3  4  2  0  0  0
  4  5  1  0  0  0
  5  1  1  0  0  0
  5  6  2  0  0  0
  6  7  1  0  0  0
  1 11  1  0  0  0
 11 14  1  0  0  0
 11 13  2  0  0  0
 11 12  2  0  0  0
 14 15  1  0  0  0
 15 16  1  0  0  0
 16 17  1  0  0  0
 17 18  1  0  0  0
 18 20  2  0  0  0
 18 19  2  0  0  0
M  CHG 1  18  -1
M  END
> <minimizedAffinity>
-7.53009

$$$$
1aj7_ligand


 20 20  0  0  0  0  0  0  0  0999 V2000
   16.7312    8.2761   35.7889 O   0  0  0  0  0  0  0  0  0  0  0  0
   18.3681    5.8665   32.7080 C   0  0  0  0  0  0  0  0  0  0  0  0
   17.5459    5.2834   33.7164 C   0  0  0  0  0  0  0  0  0  0  0  0
   17.0226    6.0809   34.7564 C   0  0  0  0  0  0  0  0  0  0  0  0
   17.3129    7.4631   34.7916 C   0  0  0  0  0  0  0  0  0  0  0  0
   18.1323    8.0504   33.7977 C   0  0  0  0  0  0  0  0  0  0  0  0
   18.6590    7.2638   32.7540 C   0  0  0  0  0  0  0  0  0  0  0  0
   18.8914    5.0537   31.6466 N   0  0  0  0  0  0  0  0  0  0  0  0
   19.8281    5.6444   30.7782 O   0  0  0  0  0  0  0  0  0  0  0  0
   18.4253    3.7298   31.5757 O   0  0  0  0  0  0  0  0  0  0  0  0
   17.4412    8.3975   37.1415 P   0  0  0  0  0  0  0  0  0  0  0  0
   18.7619    8.8631   36.8499 O   0  0  0  0  0  0  0  0  0  0  0  0
   17.6214    7.0783   37.6536 O   0  0  0  0  0  0  0  0  0  0  0  0
   16.6050    9.4383   38.3454 C   0  0  0  0  0  0  0  0  0  0  0  0
   15.8335    8.5480   39.3188 C   0  0  0  0  0  0  0  0  0  0  0  0
   15.4486    9.1992   40.6555 C   0  0  0  0  0  0  0  0  0  0  0  0
   13.9561    9.5620   40.6638 C   0  0  0  0  0  0  0  0  0  0  0  0
   13.6308   11.0528   40.6795 C   0  0  0  0  0  0  0  0  0  0  0  0
   14.3931   11.9387   40.8994 O   0  0  0  0  0  0  0  0  0  0  0  0
   12.3230   11.2141   40.4030 O   0  0  0  0  0  0  0  0  0  0  0  0
  2  7  2  0  0  0
  2  3  1  0  0  0
  2  8  1  0  0  0
  8 10  2  0  0  0
  8  9  2  0  0  0
  3  4  2  0  0  0
  4  5  1  0  0  0
  5  1  1  0  0  0
  5  6  2  0  0  0
  6  7  1  0  0  0
  1 11  1  0  0  0
 11 14  1  0  0  0
 11 13  2  0  0  0
 11 12  2  0  0  0
 14 15  1  0  0  0
 15 16  1  0  0  0
 16 17  1  0  0  0
 17 18  1  0  0  0
 18 20  2  0  0  0
 18 19  2  0  0  0
M  CHG 1  18  -1
M  END
> <minimizedAffinity>
-7.49526

$$$$
1aj7_ligand


 20 20  0  0  0  0  0  0  0  0999 V2000
   17.3350    9.2647   38.0723 O   0  0  0  0  0  0  0  0  0  0  0  0
   15.7953    7.6395   41.6730 C   0  0  0  0  0  0  0  0  0  0  0  0
   14.9272    7.8973   40.5719 C   0  0  0  0  0  0  0  0  0  0  0  0
   15.4352    8.4624   39.3828 C   0  0  0  0  0  0  0  0  0  0  0  0
   16.8113    8.7676   39.2858 C   0  0  0  0  0  0  0  0  0  0  0  0
   17.6804    8.5199   40.3755 C   0  0  0  0  0  0  0  0  0  0  0  0
   17.1840    7.9547   41.5669 C   0  0  0  0  0  0  0  0  0  0  0  0
   15.2764    7.0563   42.8780 N   0  0  0  0  0  0  0  0  0  0  0  0
   14.4697    5.9103   42.7492 O   0  0  0  0  0  0  0  0  0  0  0  0
   15.6307    7.6808   44.0859 O   0  0  0  0  0  0  0  0  0  0  0  0
   17.5320    8.2907   36.9057 P   0  0  0  0  0  0  0  0  0  0  0  0
   17.8045    7.0184   37.4999 O   0  0  0  0  0  0  0  0  0  0  0  0
   18.7415    8.6527   36.2416 O   0  0  0  0  0  0  0  0  0  0  0  0
   16.1646    8.2170   35.7411 C   0  0  0  0  0  0  0  0  0  0  0  0
   16.7141    7.8972   34.3514 C   0  0  0  0  0  0  0  0  0  0  0  0
   17.1695    6.4468   34.1325 C   0  0  0  0  0  0  0  0  0  0  0  0
   18.3288    6.3960   33.1262 C   0  0  0  0  0  0  0  0  0  0  0  0
   18.4855    5.0901   32.3525 C   0  0  0  0  0  0  0  0  0  0  0  0
   17.8793    4.0838   32.5374 O   0  0  0  0  0  0  0  0  0  0  0  0
   19.4348    5.2546   31.4119 O   0  0  0  0  0  0  0  0  0  0  0  0
  2  7  2  0  0  0
  2  3  1  0  0  0
  2  8  1  0  0  0
  8 10  2  0  0  0
  8  9  2  0  0  0
  3  4  2  0  0  0
  4  5  1  0  0  0
  5  1  1  0  0  0
  5  6  2  0  0  0
  6  7  1  0  0  0
  1 11  1  0  0  0
 11 14  1  0  0  0
 11 13  2  0  0  0
 11 12  2  0  0  0
 14 15  1  0  0  0
 15 16  1  0  0  0
 16 17  1  0  0  0
 17 18  1  0  0  0
 18 20  2  0  0  0
 18 19  2  0  0  0
M  CHG 1  18  -1
M  END
> <minimizedAffinity>
-7.16833

$$$$
1aj7_ligand


 20 20  0  0  0  0  0  0  0  0999 V2000
   17.7821    9.0864   38.8939 O   0  0  0  0  0  0  0  0  0  0  0  0
   14.2186    8.7121   41.1607 C   0  0  0  0  0  0  0  0  0  0  0  0
   14.3433    9.7416   40.1824 C   0  0  0  0  0  0  0  0  0  0  0  0
   15.5391    9.8823   39.4464 C   0  0  0  0  0  0  0  0  0  0  0  0
   16.6125    8.9939   39.6795 C   0  0  0  0  0  0  0  0  0  0  0  0
   16.5002    7.9715   40.6524 C   0  0  0  0  0  0  0  0  0  0  0  0
   15.3104    7.8211   41.3920 C   0  0  0  0  0  0  0  0  0  0  0  0
   12.9973    8.5665   41.9013 N   0  0  0  0  0  0  0  0  0  0  0  0
   12.3242    7.3342   41.8074 O   0  0  0  0  0  0  0  0  0  0  0  0
   12.5863    9.6717   42.6657 O   0  0  0  0  0  0  0  0  0  0  0  0
   17.9181    8.1720   37.6717 P   0  0  0  0  0  0  0  0  0  0  0  0
   18.6940    7.0514   38.1056 O   0  0  0  0  0  0  0  0  0  0  0  0
   18.7423    8.8435   36.7206 O   0  0  0  0  0  0  0  0  0  0  0  0
   16.3621    7.6712   36.9234 C   0  0  0  0  0  0  0  0  0  0  0  0
   16.0667    8.5858   35.7353 C   0  0  0  0  0  0  0  0  0  0  0  0
   15.9766    7.8933   34.3674 C   0  0  0  0  0  0  0  0  0  0  0  0
   17.3767    7.7285   33.7577 C   0  0  0  0  0  0  0  0  0  0  0  0
   17.8308    6.2939   33.5047 C   0  0  0  0  0  0  0  0  0  0  0  0
   18.6856    5.9466   32.7543 O   0  0  0  0  0  0  0  0  0  0  0  0
   17.0998    5.4656   34.2745 O   0  0  0  0  0  0  0  0  0  0  0  0
  2  7  2  0  0  0
  2  3  1  0  0  0
  2  8  1  0  0  0
  8 10  2  0  0  0
  8  9  2  0  0  0
  3  4  2  0  0  0
  4  5  1  0  0  0
  5  1  1  0  0  0
  5  6  2  0  0  0
  6  7  1  0  0  0
  1 11  1  0  0  0
 11 14  1  0  0  0
 11 13  2  0  0  0
 11 12  2  0  0  0
 14 15  1  0  0  0
 15 16  1  0  0  0
 16 17  1  0  0  0
 17 18  1  0  0  0
 18 20  2  0  0  0
 18 19  2  0  0  0
M  CHG 1  18  -1
M  END
> <minimizedAffinity>
-7.07257

$$$$
1aj7_ligand


 20 20  0  0  0  0  0  0  0  0999 V2000
   16.4188    9.3815   40.7095 O   0  0  0  0  0  0  0  0  0  0  0  0
   17.3326    8.0269   36.7970 C   0  0  0  0  0  0  0  0  0  0  0  0
   18.2640    7.8364   37.8594 C   0  0  0  0  0  0  0  0  0  0  0  0
   17.9710    8.3105   39.1558 C   0  0  0  0  0  0  0  0  0  0  0  0
   16.7461    8.9714   39.3985 C   0  0  0  0  0  0  0  0  0  0  0  0
   15.8168    9.1698   38.3490 C   0  0  0  0  0  0  0  0  0  0  0  0
   16.0987    8.6993   37.0511 C   0  0  0  0  0  0  0  0  0  0  0  0
   17.6304    7.5354   35.4814 N   0  0  0  0  0  0  0  0  0  0  0  0
   17.2137    6.2285   35.1670 O   0  0  0  0  0  0  0  0  0  0  0  0
   18.3074    8.4128   34.6172 O   0  0  0  0  0  0  0  0  0  0  0  0
   15.6702    8.4009   41.6186 P   0  0  0  0  0  0  0  0  0  0  0  0
   15.2287    7.3385   40.7688 O   0  0  0  0  0  0  0  0  0  0  0  0
   14.4739    9.0444   42.0541 O   0  0  0  0  0  0  0  0  0  0  0  0
   16.6156    7.7980   43.0237 C   0  0  0  0  0  0  0  0  0  0  0  0
   17.5580    6.6926   42.5490 C   0  0  0  0  0  0  0  0  0  0  0  0
   17.5629    5.4116   43.3963 C   0  0  0  0  0  0  0  0  0  0  0  0
   16.1371    5.0648   43.8503 C   0  0  0  0  0  0  0  0  0  0  0  0
   15.2282    4.4518   42.7887 C   0  0  0  0  0  0  0  0  0  0  0  0
   15.4907    3.5330   42.0808 O   0  0  0  0  0  0  0  0  0  0  0  0
   14.0623    5.1251   42.7750 O   0  0  0  0  0  0  0  0  0  0  0  0
  2  7  2  0  0  0
  2  3  1  0  0  0
  2  8  1  0  0  0
  8 10  2  0  0  0
  8  9  2  0  0  0
  3  4  2  0  0  0
  4  5  1  0  0  0
  5  1  1  0  0  0
  5  6  2  0  0  0
  6  7  1  0  0  0
  1 11  1  0  0  0
 11 14  1  0  0  0
 11 13  2  0  0  0
 11 12  2  0  0  0
 14 15  1  0  0  0
 15 16  1  0  0  0
 16 17  1  0  0  0
 17 18  1  0  0  0
 18 20  2  0  0  0
 18 19  2  0  0  0
M  CHG 1  18  -1
M  END
> <minimizedAffinity>
-6.86631

$$$$
1aj7_ligand


 20 20  0  0  0  0  0  0  0  0999 V2000
   16.0634    7.6788   38.2709 O   0  0  0  0  0  0  0  0  0  0  0  0
   16.2221    9.8946   41.8823 C   0  0  0  0  0  0  0  0  0  0  0  0
   15.1499   10.0932   40.9638 C   0  0  0  0  0  0  0  0  0  0  0  0
   15.1110    9.3746   39.7499 C   0  0  0  0  0  0  0  0  0  0  0  0
   16.1381    8.4520   39.4501 C   0  0  0  0  0  0  0  0  0  0  0  0
   17.2096    8.2515   40.3535 C   0  0  0  0  0  0  0  0  0  0  0  0
   17.2576    8.9626   41.5690 C   0  0  0  0  0  0  0  0  0  0  0  0
   16.2535   10.6210   43.1203 N   0  0  0  0  0  0  0  0  0  0  0  0
   15.1012   10.5791   43.9269 O   0  0  0  0  0  0  0  0  0  0  0  0
   17.4435   11.3052   43.4215 O   0  0  0  0  0  0  0  0  0  0  0  0
   16.9906    8.0322   37.1031 P   0  0  0  0  0  0  0  0  0  0  0  0
   17.9573    6.9799   37.0386 O   0  0  0  0  0  0  0  0  0  0  0  0
   17.7332    9.1910   37.4779 O   0  0  0  0  0  0  0  0  0  0  0  0
   16.1616    8.2898   35.5288 C   0  0  0  0  0  0  0  0  0  0  0  0
   16.4353    7.0900   34.6227 C   0  0  0  0  0  0  0  0  0  0  0  0
   17.5775    7.2657   33.6111 C   0  0  0  0  0  0  0  0  0  0  0  0
   18.1798    5.9019   33.2417 C   0  0  0  0  0  0  0  0  0  0  0  0
   18.9587    5.8484   31.9306 C   0  0  0  0  0  0  0  0  0  0  0  0
   19.3216    4.8669   31.3654 O   0  0  0  0  0  0  0  0  0  0  0  0
   19.1782    7.1068   31.5050 O   0  0  0  0  0  0  0  0  0  0  0  0
  2  7  2  0  0  0
  2  3  1  0  0  0
  2  8  1  0  0  0
  8 10  2  0  0  0
  8  9  2  0  0  0
  3  4  2  0  0  0
  4  5  1  0  0  0
  5  1  1  0  0  0
  5  6  2  0  0  0
  6  7  1  0  0  0
  1 11  1  0  0  0
 11 14  1  0  0  0
 11 13  2  0  0  0
 11 12  2  0  0  0
 14 15  1  0  0  0
 15 16  1  0  0  0
 16 17  1  0  0  0
 17 18  1  0  0  0
 18 20  2  0  0  0
 18 19  2  0  0  0
M  CHG 1  18  -1
M  END
> <minimizedAffinity>
-6.79913

$$$$
1aj7_ligand


 20 20  0  0  0  0  0  0  0  0999 V2000
   16.3913    9.4074   40.7052 O   0  0  0  0  0  0  0  0  0  0  0  0
   17.3538    8.0676   36.7994 C   0  0  0  0  0  0  0  0  0  0  0  0
   18.2779    7.8857   37.8697 C   0  0  0  0  0  0  0  0  0  0  0  0
   17.9684    8.3550   39.1640 C   0  0  0  0  0  0  0  0  0  0  0  0
   16.7344    9.0025   39.3967 C   0  0  0  0  0  0  0  0  0  0  0  0
   15.8124    9.1923   38.3393 C   0  0  0  0  0  0  0  0  0  0  0  0
   16.1106    8.7265   37.0434 C   0  0  0  0  0  0  0  0  0  0  0  0
   17.6684    7.5809   35.4858 N   0  0  0  0  0  0  0  0  0  0  0  0
   18.3694    8.4450   34.6242 O   0  0  0  0  0  0  0  0  0  0  0  0
   17.2536    6.2735   35.1801 O   0  0  0  0  0  0  0  0  0  0  0  0
   15.3770    8.5682   41.4897 P   0  0  0  0  0  0  0  0  0  0  0  0
   15.8586    8.5299   42.8360 O   0  0  0  0  0  0  0  0  0  0  0  0
   15.4790    7.2235   41.0246 O   0  0  0  0  0  0  0  0  0  0  0  0
   13.6780    9.1475   41.3927 C   0  0  0  0  0  0  0  0  0  0  0  0
   12.7430    7.9389   41.3702 C   0  0  0  0  0  0  0  0  0  0  0  0
   12.3607    7.3666   42.7432 C   0  0  0  0  0  0  0  0  0  0  0  0
   12.6975    5.8696   42.8117 C   0  0  0  0  0  0  0  0  0  0  0  0
   13.9584    5.5031   43.5890 C   0  0  0  0  0  0  0  0  0  0  0  0
   14.3345    6.0044   44.5997 O   0  0  0  0  0  0  0  0  0  0  0  0
   14.5930    4.5077   42.9414 O   0  0  0  0  0  0  0  0  0  0  0  0
  2  7  2  0  0  0
  2  3  1  0  0  0
  2  8  1  0  0  0
  8 10  2  0  0  0
  8  9  2  0  0  0
  3  4  2  0  0  0
  4  5  1  0  0  0
  5  1  1  0  0  0
  5  6  2  0  0  0
  6  7  1  0  0  0
  1 11  1  0  0  0
 11 14  1  0  0  0
 11 13  2  0  0  0
 11 12  2  0  0  0
 14 15  1  0  0  0
 15 16  1  0  0  0
 16 17  1  0  0  0
 17 18  1  0  0  0
 18 20  2  0  0  0
 18 19  2  0  0  0
M  CHG 1  18  -1
M  END
> <minimizedAffinity>
-6.72579

$$$$
1aj7_ligand


 20 20  0  0  0  0  0  0  0  0999 V2000
   16.2762    9.7685   40.5758 O   0  0  0  0  0  0  0  0  0  0  0  0
   17.3226    8.0802   36.8299 C   0  0  0  0  0  0  0  0  0  0  0  0
   16.1079    8.8125   36.9740 C   0  0  0  0  0  0  0  0  0  0  0  0
   15.7471    9.3521   38.2270 C   0  0  0  0  0  0  0  0  0  0  0  0
   16.5987    9.1679   39.3392 C   0  0  0  0  0  0  0  0  0  0  0  0
   17.8046    8.4380   39.2073 C   0  0  0  0  0  0  0  0  0  0  0  0
   18.1752    7.8961   37.9606 C   0  0  0  0  0  0  0  0  0  0  0  0
   17.6906    7.5403   35.5514 N   0  0  0  0  0  0  0  0  0  0  0  0
   17.3095    6.2146   35.2727 O   0  0  0  0  0  0  0  0  0  0  0  0
   18.3946    8.3931   34.6842 O   0  0  0  0  0  0  0  0  0  0  0  0
   15.0919    9.2125   41.3737 P   0  0  0  0  0  0  0  0  0  0  0  0
   13.9572    9.9913   40.9840 O   0  0  0  0  0  0  0  0  0  0  0  0
   15.3065    9.5372   42.7461 O   0  0  0  0  0  0  0  0  0  0  0  0
   14.8055    7.4489   41.1747 C   0  0  0  0  0  0  0  0  0  0  0  0
   14.4011    6.8574   42.5245 C   0  0  0  0  0  0  0  0  0  0  0  0
   15.2882    5.7166   43.0448 C   0  0  0  0  0  0  0  0  0  0  0  0
   16.4250    6.2761   43.9130 C   0  0  0  0  0  0  0  0  0  0  0  0
   17.6826    6.7128   43.1672 C   0  0  0  0  0  0  0  0  0  0  0  0
   18.2875    7.7227   43.3356 O   0  0  0  0  0  0  0  0  0  0  0  0
   18.0072    5.7620   42.2708 O   0  0  0  0  0  0  0  0  0  0  0  0
  2  7  2  0  0  0
  2  3  1  0  0  0
  2  8  1  0  0  0
  8 10  2  0  0  0
  8  9  2  0  0  0
  3  4  2  0  0  0
  4  5  1  0  0  0
  5  1  1  0  0  0
  5  6  2  0  0  0
  6  7  1  0  0  0
  1 11  1  0  0  0
 11 14  1  0  0  0
 11 13  2  0  0  0
 11 12  2  0  0  0
 14 15  1  0  0  0
 15 16  1  0  0  0
 16 17  1  0  0  0
 17 18  1  0  0  0
 18 20  2  0  0  0
 18 19  2  0  0  0
M  CHG 1  18  -1
M  END
> <minimizedAffinity>
-6.57760

$$$$
1aj7_ligand


 20 20  0  0  0  0  0  0  0  0999 V2000
   16.4215    9.2861   40.7057 O   0  0  0  0  0  0  0  0  0  0  0  0
   17.3483    8.1918   36.7156 C   0  0  0  0  0  0  0  0  0  0  0  0
   16.0343    8.6293   37.0541 C   0  0  0  0  0  0  0  0  0  0  0  0
   15.7190    8.9685   38.3871 C   0  0  0  0  0  0  0  0  0  0  0  0
   16.7140    8.8777   39.3860 C   0  0  0  0  0  0  0  0  0  0  0  0
   18.0203    8.4396   39.0606 C   0  0  0  0  0  0  0  0  0  0  0  0
   18.3464    8.0997   37.7327 C   0  0  0  0  0  0  0  0  0  0  0  0
   17.6677    7.8559   35.3567 N   0  0  0  0  0  0  0  0  0  0  0  0
   18.6262    8.6500   34.7000 O   0  0  0  0  0  0  0  0  0  0  0  0
   16.9970    6.7515   34.8043 O   0  0  0  0  0  0  0  0  0  0  0  0
   16.1136    8.2115   41.7539 P   0  0  0  0  0  0  0  0  0  0  0  0
   16.3139    8.8359   43.0251 O   0  0  0  0  0  0  0  0  0  0  0  0
   17.1349    7.2194   41.6669 O   0  0  0  0  0  0  0  0  0  0  0  0
   14.4855    7.4620   41.6149 C   0  0  0  0  0  0  0  0  0  0  0  0
   13.5224    8.4792   41.0042 C   0  0  0  0  0  0  0  0  0  0  0  0
   13.0630    9.6071   41.9400 C   0  0  0  0  0  0  0  0  0  0  0  0
   12.6696   10.8498   41.1274 C   0  0  0  0  0  0  0  0  0  0  0  0
   13.4943   12.1071   41.3876 C   0  0  0  0  0  0  0  0  0  0  0  0
   14.6398   12.1459   41.7047 O   0  0  0  0  0  0  0  0  0  0  0  0
   12.7105   13.1859   41.2015 O   0  0  0  0  0  0  0  0  0  0  0  0
  2  7  2  0  0  0
  2  3  1  0  0  0
  2  8  1  0  0  0
  8 10  2  0  0  0
  8  9  2  0  0  0
  3  4  2  0  0  0
  4  5  1  0  0  0
  5  1  1  0  0  0
  5  6  2  0  0  0
  6  7  1  0  0  0
  1 11  1  0  0  0
 11 14  1  0  0  0
 11 13  2  0  0  0
 11 12  2  0  0  0
 14 15  1  0  0  0
 15 16  1  0  0  0
 16 17  1  0  0  0
 17 18  1  0  0  0
 18 20  2  0  0  0
 18 19  2  0  0  0
M  CHG 1  18  -1
M  END
> <minimizedAffinity>
-6.54719

$$$$
1aj7_ligand


 20 20  0  0  0  0  0  0  0  0999 V2000
   16.3087    9.3360   40.6339 O   0  0  0  0  0  0  0  0  0  0  0  0
   17.3488    8.0404   36.7330 C   0  0  0  0  0  0  0  0  0  0  0  0
   18.2354    7.8131   37.8261 C   0  0  0  0  0  0  0  0  0  0  0  0
   17.9009    8.2675   39.1195 C   0  0  0  0  0  0  0  0  0  0  0  0
   16.6791    8.9453   39.3285 C   0  0  0  0  0  0  0  0  0  0  0  0
   15.7943    9.1801   38.2485 C   0  0  0  0  0  0  0  0  0  0  0  0
   16.1176    8.7296   36.9532 C   0  0  0  0  0  0  0  0  0  0  0  0
   17.6885    7.5688   35.4201 N   0  0  0  0  0  0  0  0  0  0  0  0
   18.4060    8.4426   34.5822 O   0  0  0  0  0  0  0  0  0  0  0  0
   17.2794    6.2652   35.0914 O   0  0  0  0  0  0  0  0  0  0  0  0
   15.1356    8.6172   41.3088 P   0  0  0  0  0  0  0  0  0  0  0  0
   15.1105    7.3002   40.7513 O   0  0  0  0  0  0  0  0  0  0  0  0
   13.9326    9.2327   40.8517 O   0  0  0  0  0  0  0  0  0  0  0  0
   15.1946    8.5928   43.1054 C   0  0  0  0  0  0  0  0  0  0  0  0
   14.3206    7.4470   43.6141 C   0  0  0  0  0  0  0  0  0  0  0  0
   15.0484    6.3609   44.4201 C   0  0  0  0  0  0  0  0  0  0  0  0
   16.5595    6.4165   44.1504 C   0  0  0  0  0  0  0  0  0  0  0  0
   17.0585    5.5887   42.9696 C   0  0  0  0  0  0  0  0  0  0  0  0
   18.0562    5.7744   42.3496 O   0  0  0  0  0  0  0  0  0  0  0  0
   16.1781    4.5982   42.7318 O   0  0  0  0  0  0  0  0  0  0  0  0
  2  7  2  0  0  0
  2  3  1  0  0  0
  2  8  1  0  0  0
  8 10  2  0  0  0
  8  9  2  0  0  0
  3  4  2  0  0  0
  4  5  1  0  0  0
  5  1  1  0  0  0
  5  6  2  0  0  0
  6  7  1  0  0  0
  1 11  1  0  0  0
 11 14  1  0  0  0
 11 13  2  0  0  0
 11 12  2  0  0  0
 14 15  1  0  0  0
 15 16  1  0  0  0
 16 17  1  0  0  0
 17 18  1  0  0  0
 18 20  2  0  0  0
 18 19  2  0  0  0
M  CHG 1  18  -1
M  END
> <minimizedAffinity>
-6.45451

$$$$
