1a28_ligand


 23 26  0  0  0  0  0  0  0  0999 V2000
   21.0170    9.5776   62.6863 C   0  0  0  0  0  0  0  0  0  0  0  0
   20.9957    9.0806   64.1539 C   0  0  0  0  0  0  0  0  0  0  0  0
   21.9508    7.9007   64.3056 C   0  0  0  0  0  0  0  0  0  0  0  0
   21.7110    7.0267   65.1570 O   0  0  0  0  0  0  0  0  0  0  0  0
   23.1733    7.8466   63.5185 C   0  0  0  0  0  0  0  0  0  0  0  0
   23.4496    8.7580   62.6037 C   0  0  0  0  0  0  0  0  0  0  0  0
   24.7951    8.6931   61.8902 C   0  0  0  0  0  0  0  0  0  0  0  0
   24.6592    8.8648   60.3653 C   0  0  0  0  0  0  0  0  0  0  0  0
   23.8196   10.1030   59.9580 C   0  0  0  0  0  0  0  0  0  0  0  0
   22.4011    9.9671   60.6017 C   0  0  0  0  0  0  0  0  0  0  0  0
   22.4452    9.9039   62.1738 C   0  0  0  0  0  0  0  0  0  0  0  0
   21.4467   11.0837   60.1046 C   0  0  0  0  0  0  0  0  0  0  0  0
   21.3786   11.1510   58.5535 C   0  0  0  0  0  0  0  0  0  0  0  0
   22.7819   11.3534   57.9415 C   0  0  0  0  0  0  0  0  0  0  0  0
   23.6475   10.1359   58.4359 C   0  0  0  0  0  0  0  0  0  0  0  0
   24.9312   10.2044   57.5718 C   0  0  0  0  0  0  0  0  0  0  0  0
   24.3776   10.6494   56.1696 C   0  0  0  0  0  0  0  0  0  0  0  0
   22.8958   11.1115   56.3999 C   0  0  0  0  0  0  0  0  0  0  0  0
   23.4037   12.7481   58.3050 C   0  0  0  0  0  0  0  0  0  0  0  0
   22.9896   11.2354   62.8185 C   0  0  0  0  0  0  0  0  0  0  0  0
   22.4376   12.2899   55.5240 C   0  0  0  0  0  0  0  0  0  0  0  0
   23.2457   12.9132   54.8693 O   0  0  0  0  0  0  0  0  0  0  0  0
   20.9938   12.6517   55.4789 C   0  0  0  0  0  0  0  0  0  0  0  0
  1  2  1  0  0  0
  1 11  1  0  0  0
  2  3  1  0  0  0
  3  4  2  0  0  0
  3  5  1  0  0  0
  5  6  2  0  0  0
  6  7  1  0  0  0
  6 11  1  0  0  0
  7  8  1  0  0  0
  8  9  1  0  0  0
  9 10  1  0  0  0
  9 15  1  0  0  0
 10 11  1  0  0  0
 10 12  1  0  0  0
 11 20  1  0  0  0
 12 13  1  0  0  0
 13 14  1  0  0  0
 14 15  1  0  0  0
 14 18  1  0  0  0
 14 19  1  0  0  0
 15 16  1  0  0  0
 16 17  1  0  0  0
 17 18  1  0  0  0
 18 21  1  0  0  0
 21 22  2  0  0  0
 21 23  1  0  0  0
M  END
> <minimizedAffinity>
-11.45719

$$$$
1a28_ligand


 23 26  0  0  0  0  0  0  0  0999 V2000
   22.1287   12.9218   57.5959 C   0  0  0  0  0  0  0  0  0  0  0  0
   22.0222   13.4533   56.1442 C   0  0  0  0  0  0  0  0  0  0  0  0
   23.0458   12.7413   55.2651 C   0  0  0  0  0  0  0  0  0  0  0  0
   23.5260   13.3353   54.2838 O   0  0  0  0  0  0  0  0  0  0  0  0
   23.3902   11.3521   55.5264 C   0  0  0  0  0  0  0  0  0  0  0  0
   22.8996   10.6997   56.5644 C   0  0  0  0  0  0  0  0  0  0  0  0
   23.2248    9.2183   56.7171 C   0  0  0  0  0  0  0  0  0  0  0  0
   23.6548    8.8570   58.1516 C   0  0  0  0  0  0  0  0  0  0  0  0
   22.6750    9.3743   59.2363 C   0  0  0  0  0  0  0  0  0  0  0  0
   22.5625   10.9274   59.0950 C   0  0  0  0  0  0  0  0  0  0  0  0
   22.0150   11.3768   57.6894 C   0  0  0  0  0  0  0  0  0  0  0  0
   21.7304   11.5403   60.2512 C   0  0  0  0  0  0  0  0  0  0  0  0
   22.2663   11.1196   61.6480 C   0  0  0  0  0  0  0  0  0  0  0  0
   22.3053    9.5824   61.7910 C   0  0  0  0  0  0  0  0  0  0  0  0
   23.2323    9.0648   60.6296 C   0  0  0  0  0  0  0  0  0  0  0  0
   23.4928    7.5793   60.9824 C   0  0  0  0  0  0  0  0  0  0  0  0
   23.6263    7.6169   62.5481 C   0  0  0  0  0  0  0  0  0  0  0  0
   23.1216    9.0303   63.0063 C   0  0  0  0  0  0  0  0  0  0  0  0
   20.8739    8.9384   61.7795 C   0  0  0  0  0  0  0  0  0  0  0  0
   20.5340   10.8999   57.4357 C   0  0  0  0  0  0  0  0  0  0  0  0
   22.3749    9.0508   64.3508 C   0  0  0  0  0  0  0  0  0  0  0  0
   22.0156   10.1039   64.8325 O   0  0  0  0  0  0  0  0  0  0  0  0
   22.0882    7.7675   65.0496 C   0  0  0  0  0  0  0  0  0  0  0  0
  1  2  1  0  0  0
  1 11  1  0  0  0
  2  3  1  0  0  0
  3  4  2  0  0  0
  3  5  1  0  0  0
  5  6  2  0  0  0
  6  7  1  0  0  0
  6 11  1  0  0  0
  7  8  1  0  0  0
  8  9  1  0  0  0
  9 10  1  0  0  0
  9 15  1  0  0  0
 10 11  1  0  0  0
 10 12  1  0  0  0
 11 20  1  0  0  0
 12 13  1  0  0  0
 13 14  1  0  0  0
 14 15  1  0  0  0
 14 18  1  0  0  0
 14 19  1  0  0  0
 15 16  1  0  0  0
 16 17  1  0  0  0
 17 18  1  0  0  0
 18 21  1  0  0  0
 21 22  2  0  0  0
 21 23  1  0  0  0
M  END
> <minimizedAffinity>
-9.34984

$$$$
1a28_ligand


 23 26  0  0  0  0  0  0  0  0999 V2000
   21.8681    9.7533   56.8731 C   0  0  0  0  0  0  0  0  0  0  0  0
   22.1405   10.1378   55.3969 C   0  0  0  0  0  0  0  0  0  0  0  0
   22.3330   11.6475   55.2914 C   0  0  0  0  0  0  0  0  0  0  0  0
   22.0149   12.2315   54.2406 O   0  0  0  0  0  0  0  0  0  0  0  0
   22.9615   12.3800   56.3800 C   0  0  0  0  0  0  0  0  0  0  0  0
   23.3036   11.7859   57.5087 C   0  0  0  0  0  0  0  0  0  0  0  0
   24.0493   12.5949   58.5638 C   0  0  0  0  0  0  0  0  0  0  0  0
   23.4673   12.3945   59.9760 C   0  0  0  0  0  0  0  0  0  0  0  0
   23.2995   10.9033   60.3664 C   0  0  0  0  0  0  0  0  0  0  0  0
   22.3687   10.2217   59.3110 C   0  0  0  0  0  0  0  0  0  0  0  0
   22.9525   10.2804   57.8505 C   0  0  0  0  0  0  0  0  0  0  0  0
   22.0164    8.7691   59.7239 C   0  0  0  0  0  0  0  0  0  0  0  0
   21.4239    8.6933   61.1587 C   0  0  0  0  0  0  0  0  0  0  0  0
   22.3887    9.3108   62.1943 C   0  0  0  0  0  0  0  0  0  0  0  0
   22.6194   10.7982   61.7354 C   0  0  0  0  0  0  0  0  0  0  0  0
   23.3296   11.4636   62.9403 C   0  0  0  0  0  0  0  0  0  0  0  0
   22.6092   10.8027   64.1710 C   0  0  0  0  0  0  0  0  0  0  0  0
   21.7824    9.5933   63.6088 C   0  0  0  0  0  0  0  0  0  0  0  0
   23.7192    8.4915   62.3436 C   0  0  0  0  0  0  0  0  0  0  0  0
   24.2948    9.4674   57.7016 C   0  0  0  0  0  0  0  0  0  0  0  0
   21.7062    8.3690   64.5367 C   0  0  0  0  0  0  0  0  0  0  0  0
   22.6324    8.1033   65.2727 O   0  0  0  0  0  0  0  0  0  0  0  0
   20.4828    7.5200   64.5310 C   0  0  0  0  0  0  0  0  0  0  0  0
  1  2  1  0  0  0
  1 11  1  0  0  0
  2  3  1  0  0  0
  3  4  2  0  0  0
  3  5  1  0  0  0
  5  6  2  0  0  0
  6  7  1  0  0  0
  6 11  1  0  0  0
  7  8  1  0  0  0
  8  9  1  0  0  0
  9 10  1  0  0  0
  9 15  1  0  0  0
 10 11  1  0  0  0
 10 12  1  0  0  0
 11 20  1  0  0  0
 12 13  1  0  0  0
 13 14  1  0  0  0
 14 15  1  0  0  0
 14 18  1  0  0  0
 14 19  1  0  0  0
 15 16  1  0  0  0
 16 17  1  0  0  0
 17 18  1  0  0  0
 18 21  1  0  0  0
 21 22  2  0  0  0
 21 23  1  0  0  0
M  END
> <minimizedAffinity>
-9.17346

$$$$
