1ajp_ligand


 14 14  0  0  0  0  0  0  0  0999 V2000
   11.0865   35.7144   34.0423 C   0  0  0  0  0  0  0  0  0  0  0  0
   12.1151   36.6346   33.8678 C   0  0  0  0  0  0  0  0  0  0  0  0
   13.1945   36.5931   34.7185 C   0  0  0  0  0  0  0  0  0  0  0  0
   14.2825   37.4332   34.6723 O   0  0  0  0  0  0  0  0  0  0  0  0
   13.3217   35.6733   35.7547 C   0  0  0  0  0  0  0  0  0  0  0  0
   12.3091   34.7658   35.9176 C   0  0  0  0  0  0  0  0  0  0  0  0
   11.2085   34.8077   35.0866 C   0  0  0  0  0  0  0  0  0  0  0  0
   10.4519   34.0531   35.3147 O   0  0  0  0  0  0  0  0  0  0  0  0
   15.0706   36.9215   34.5323 H   0  0  0  0  0  0  0  0  0  0  0  0
    9.7267   34.1397   34.7070 H   0  0  0  0  0  0  0  0  0  0  0  0
    9.8946   35.7299   33.1165 C   0  0  0  0  0  0  0  0  0  0  0  0
   10.2336   35.5125   31.6340 C   0  0  0  0  0  0  0  0  0  0  0  0
   10.2592   34.3792   31.1695 O   0  0  0  0  0  0  0  0  0  0  0  0
   10.5311   36.4493   30.8892 O   0  0  0  0  0  0  0  0  0  0  0  0
 12 14  2  0  0  0
 12 13  2  0  0  0
 12 11  1  0  0  0
 11  1  1  0  0  0
  1  7  2  0  0  0
  1  2  1  0  0  0
  2  3  2  0  0  0
  3  5  1  0  0  0
  3  4  1  0  0  0
  5  6  2  0  0  0
  6  7  1  0  0  0
  7  8  1  0  0  0
  4  9  1  0  0  0
  8 10  1  0  0  0
M  CHG 1  12  -1
M  END
> <minimizedAffinity>
-6.13745

$$$$
1ajp_ligand


 14 14  0  0  0  0  0  0  0  0999 V2000
   12.7869   36.3289   34.7736 C   0  0  0  0  0  0  0  0  0  0  0  0
   11.9343   36.6126   33.7116 C   0  0  0  0  0  0  0  0  0  0  0  0
   10.8029   35.8490   33.5462 C   0  0  0  0  0  0  0  0  0  0  0  0
    9.8697   36.0071   32.5483 O   0  0  0  0  0  0  0  0  0  0  0  0
   10.4548   34.7982   34.3890 C   0  0  0  0  0  0  0  0  0  0  0  0
   11.2944   34.5276   35.4365 C   0  0  0  0  0  0  0  0  0  0  0  0
   12.4453   35.2699   35.6040 C   0  0  0  0  0  0  0  0  0  0  0  0
   13.0527   34.9595   36.4575 O   0  0  0  0  0  0  0  0  0  0  0  0
    9.0222   36.1931   32.9353 H   0  0  0  0  0  0  0  0  0  0  0  0
   13.8249   35.5103   36.5123 H   0  0  0  0  0  0  0  0  0  0  0  0
   14.0304   37.1575   34.9856 C   0  0  0  0  0  0  0  0  0  0  0  0
   13.9302   38.1805   36.1274 C   0  0  0  0  0  0  0  0  0  0  0  0
   14.0708   37.8195   37.2896 O   0  0  0  0  0  0  0  0  0  0  0  0
   13.6637   39.3663   35.9187 O   0  0  0  0  0  0  0  0  0  0  0  0
 12 14  2  0  0  0
 12 13  2  0  0  0
 12 11  1  0  0  0
 11  1  1  0  0  0
  1  7  2  0  0  0
  1  2  1  0  0  0
  2  3  2  0  0  0
  3  5  1  0  0  0
  3  4  1  0  0  0
  5  6  2  0  0  0
  6  7  1  0  0  0
  7  8  1  0  0  0
  4  9  1  0  0  0
  8 10  1  0  0  0
M  CHG 1  12  -1
M  END
> <minimizedAffinity>
-5.95371

$$$$
1ajp_ligand


 14 14  0  0  0  0  0  0  0  0999 V2000
   12.0613   35.3660   34.6647 C   0  0  0  0  0  0  0  0  0  0  0  0
   12.0687   36.2378   33.5807 C   0  0  0  0  0  0  0  0  0  0  0  0
   10.9004   36.4425   32.8852 C   0  0  0  0  0  0  0  0  0  0  0  0
   10.7518   37.2696   31.7964 O   0  0  0  0  0  0  0  0  0  0  0  0
    9.6963   35.8236   33.2061 C   0  0  0  0  0  0  0  0  0  0  0  0
    9.6935   34.9715   34.2781 C   0  0  0  0  0  0  0  0  0  0  0  0
   10.8622   34.7379   34.9733 C   0  0  0  0  0  0  0  0  0  0  0  0
   10.7538   34.0282   35.7969 O   0  0  0  0  0  0  0  0  0  0  0  0
   10.1069   37.9386   31.9940 H   0  0  0  0  0  0  0  0  0  0  0  0
   11.5924   33.9156   36.2289 H   0  0  0  0  0  0  0  0  0  0  0  0
   13.3267   35.1307   35.4529 C   0  0  0  0  0  0  0  0  0  0  0  0
   13.3883   35.8687   36.7989 C   0  0  0  0  0  0  0  0  0  0  0  0
   13.9789   36.9384   36.8864 O   0  0  0  0  0  0  0  0  0  0  0  0
   12.8952   35.3950   37.8252 O   0  0  0  0  0  0  0  0  0  0  0  0
 12 14  2  0  0  0
 12 13  2  0  0  0
 12 11  1  0  0  0
 11  1  1  0  0  0
  1  7  2  0  0  0
  1  2  1  0  0  0
  2  3  2  0  0  0
  3  5  1  0  0  0
  3  4  1  0  0  0
  5  6  2  0  0  0
  6  7  1  0  0  0
  7  8  1  0  0  0
  4  9  1  0  0  0
  8 10  1  0  0  0
M  CHG 1  12  -1
M  END
> <minimizedAffinity>
-5.94930

$$$$
1ajp_ligand


 14 14  0  0  0  0  0  0  0  0999 V2000
   12.5864   36.0468   34.7522 C   0  0  0  0  0  0  0  0  0  0  0  0
   12.1279   35.1050   35.6677 C   0  0  0  0  0  0  0  0  0  0  0  0
   10.8916   34.5360   35.4722 C   0  0  0  0  0  0  0  0  0  0  0  0
   10.3054   33.5961   36.2874 O   0  0  0  0  0  0  0  0  0  0  0  0
   10.0626   34.8484   34.3993 C   0  0  0  0  0  0  0  0  0  0  0  0
   10.5219   35.7713   33.4978 C   0  0  0  0  0  0  0  0  0  0  0  0
   11.7507   36.3681   33.6910 C   0  0  0  0  0  0  0  0  0  0  0  0
   12.0123   37.1024   32.9253 O   0  0  0  0  0  0  0  0  0  0  0  0
   10.1394   32.8049   35.7884 H   0  0  0  0  0  0  0  0  0  0  0  0
   12.8658   37.4713   33.1203 H   0  0  0  0  0  0  0  0  0  0  0  0
   13.9442   36.6796   34.9360 C   0  0  0  0  0  0  0  0  0  0  0  0
   13.9865   37.8127   35.9726 C   0  0  0  0  0  0  0  0  0  0  0  0
   13.8732   38.9784   35.6133 O   0  0  0  0  0  0  0  0  0  0  0  0
   14.1792   37.5932   37.1707 O   0  0  0  0  0  0  0  0  0  0  0  0
 12 14  2  0  0  0
 12 13  2  0  0  0
 12 11  1  0  0  0
 11  1  1  0  0  0
  1  7  2  0  0  0
  1  2  1  0  0  0
  2  3  2  0  0  0
  3  5  1  0  0  0
  3  4  1  0  0  0
  5  6  2  0  0  0
  6  7  1  0  0  0
  7  8  1  0  0  0
  4  9  1  0  0  0
  8 10  1  0  0  0
M  CHG 1  12  -1
M  END
> <minimizedAffinity>
-5.87546

$$$$
1ajp_ligand


 14 14  0  0  0  0  0  0  0  0999 V2000
   11.4042   35.3567   34.2629 C   0  0  0  0  0  0  0  0  0  0  0  0
   10.6977   34.4775   33.4487 C   0  0  0  0  0  0  0  0  0  0  0  0
   10.2800   34.9082   32.2115 C   0  0  0  0  0  0  0  0  0  0  0  0
    9.5747   34.1585   31.2993 O   0  0  0  0  0  0  0  0  0  0  0  0
   10.5266   36.1858   31.7188 C   0  0  0  0  0  0  0  0  0  0  0  0
   11.2281   37.0448   32.5220 C   0  0  0  0  0  0  0  0  0  0  0  0
   11.6354   36.6359   33.7752 C   0  0  0  0  0  0  0  0  0  0  0  0
   12.1697   37.4035   34.3401 O   0  0  0  0  0  0  0  0  0  0  0  0
   10.0763   34.0851   30.4959 H   0  0  0  0  0  0  0  0  0  0  0  0
   12.4189   37.0551   35.1881 H   0  0  0  0  0  0  0  0  0  0  0  0
   11.8842   34.9074   35.6214 C   0  0  0  0  0  0  0  0  0  0  0  0
   13.3378   35.2862   35.9435 C   0  0  0  0  0  0  0  0  0  0  0  0
   14.2618   34.6941   35.3991 O   0  0  0  0  0  0  0  0  0  0  0  0
   13.6166   36.1494   36.7789 O   0  0  0  0  0  0  0  0  0  0  0  0
 12 14  2  0  0  0
 12 13  2  0  0  0
 12 11  1  0  0  0
 11  1  1  0  0  0
  1  7  2  0  0  0
  1  2  1  0  0  0
  2  3  2  0  0  0
  3  5  1  0  0  0
  3  4  1  0  0  0
  5  6  2  0  0  0
  6  7  1  0  0  0
  7  8  1  0  0  0
  4  9  1  0  0  0
  8 10  1  0  0  0
M  CHG 1  12  -1
M  END
> <minimizedAffinity>
-5.80116

$$$$
1ajp_ligand


 14 14  0  0  0  0  0  0  0  0999 V2000
   13.6467   35.3724   36.1467 C   0  0  0  0  0  0  0  0  0  0  0  0
   14.9312   35.6344   35.6813 C   0  0  0  0  0  0  0  0  0  0  0  0
   15.8794   36.0868   36.5683 C   0  0  0  0  0  0  0  0  0  0  0  0
   17.1851   36.3886   36.2590 O   0  0  0  0  0  0  0  0  0  0  0  0
   15.6281   36.2989   37.9202 C   0  0  0  0  0  0  0  0  0  0  0  0
   14.3637   36.0332   38.3740 C   0  0  0  0  0  0  0  0  0  0  0  0
   13.3944   35.5997   37.4929 C   0  0  0  0  0  0  0  0  0  0  0  0
   12.4174   35.4361   37.9540 O   0  0  0  0  0  0  0  0  0  0  0  0
   17.7661   35.8360   36.7686 H   0  0  0  0  0  0  0  0  0  0  0  0
   11.8022   35.1404   37.2932 H   0  0  0  0  0  0  0  0  0  0  0  0
   12.5888   34.8647   35.1976 C   0  0  0  0  0  0  0  0  0  0  0  0
   11.7227   35.9614   34.5593 C   0  0  0  0  0  0  0  0  0  0  0  0
   10.5743   35.7132   34.2127 O   0  0  0  0  0  0  0  0  0  0  0  0
   12.1622   37.0920   34.3366 O   0  0  0  0  0  0  0  0  0  0  0  0
 12 14  2  0  0  0
 12 13  2  0  0  0
 12 11  1  0  0  0
 11  1  1  0  0  0
  1  7  2  0  0  0
  1  2  1  0  0  0
  2  3  2  0  0  0
  3  5  1  0  0  0
  3  4  1  0  0  0
  5  6  2  0  0  0
  6  7  1  0  0  0
  7  8  1  0  0  0
  4  9  1  0  0  0
  8 10  1  0  0  0
M  CHG 1  12  -1
M  END
> <minimizedAffinity>
-5.76643

$$$$
1ajp_ligand


 14 14  0  0  0  0  0  0  0  0999 V2000
   12.7297   35.5008   35.1679 C   0  0  0  0  0  0  0  0  0  0  0  0
   11.5507   34.7648   35.1084 C   0  0  0  0  0  0  0  0  0  0  0  0
   10.6158   35.0846   34.1523 C   0  0  0  0  0  0  0  0  0  0  0  0
    9.4081   34.4520   33.9709 O   0  0  0  0  0  0  0  0  0  0  0  0
   10.7816   36.1116   33.2284 C   0  0  0  0  0  0  0  0  0  0  0  0
   11.9469   36.8285   33.2875 C   0  0  0  0  0  0  0  0  0  0  0  0
   12.8859   36.5350   34.2549 C   0  0  0  0  0  0  0  0  0  0  0  0
   13.7685   37.1784   34.2257 O   0  0  0  0  0  0  0  0  0  0  0  0
    9.3725   34.0848   33.0954 H   0  0  0  0  0  0  0  0  0  0  0  0
   14.3692   36.9215   34.9154 H   0  0  0  0  0  0  0  0  0  0  0  0
   13.7781   35.1648   36.2003 C   0  0  0  0  0  0  0  0  0  0  0  0
   13.7230   36.0258   37.4714 C   0  0  0  0  0  0  0  0  0  0  0  0
   13.2680   35.5604   38.5092 O   0  0  0  0  0  0  0  0  0  0  0  0
   14.0843   37.2049   37.4762 O   0  0  0  0  0  0  0  0  0  0  0  0
 12 14  2  0  0  0
 12 13  2  0  0  0
 12 11  1  0  0  0
 11  1  1  0  0  0
  1  7  2  0  0  0
  1  2  1  0  0  0
  2  3  2  0  0  0
  3  5  1  0  0  0
  3  4  1  0  0  0
  5  6  2  0  0  0
  6  7  1  0  0  0
  7  8  1  0  0  0
  4  9  1  0  0  0
  8 10  1  0  0  0
M  CHG 1  12  -1
M  END
> <minimizedAffinity>
-5.76230

$$$$
1ajp_ligand


 14 14  0  0  0  0  0  0  0  0999 V2000
   13.4429   36.0732   36.1455 C   0  0  0  0  0  0  0  0  0  0  0  0
   13.8211   37.1930   35.4119 C   0  0  0  0  0  0  0  0  0  0  0  0
   14.3408   38.2782   36.0773 C   0  0  0  0  0  0  0  0  0  0  0  0
   14.7564   39.4516   35.4924 O   0  0  0  0  0  0  0  0  0  0  0  0
   14.5149   38.3228   37.4569 C   0  0  0  0  0  0  0  0  0  0  0  0
   14.1469   37.2152   38.1732 C   0  0  0  0  0  0  0  0  0  0  0  0
   13.6032   36.1262   37.5236 C   0  0  0  0  0  0  0  0  0  0  0  0
   13.3268   35.3052   38.1896 O   0  0  0  0  0  0  0  0  0  0  0  0
   15.6775   39.5890   35.6803 H   0  0  0  0  0  0  0  0  0  0  0  0
   12.9612   34.5932   37.6778 H   0  0  0  0  0  0  0  0  0  0  0  0
   12.8794   34.8636   35.4403 C   0  0  0  0  0  0  0  0  0  0  0  0
   11.3607   34.9058   35.2129 C   0  0  0  0  0  0  0  0  0  0  0  0
   10.8815   35.6978   34.4105 O   0  0  0  0  0  0  0  0  0  0  0  0
   10.5857   34.1905   35.8522 O   0  0  0  0  0  0  0  0  0  0  0  0
 12 14  2  0  0  0
 12 13  2  0  0  0
 12 11  1  0  0  0
 11  1  1  0  0  0
  1  7  2  0  0  0
  1  2  1  0  0  0
  2  3  2  0  0  0
  3  5  1  0  0  0
  3  4  1  0  0  0
  5  6  2  0  0  0
  6  7  1  0  0  0
  7  8  1  0  0  0
  4  9  1  0  0  0
  8 10  1  0  0  0
M  CHG 1  12  -1
M  END
> <minimizedAffinity>
-5.72904

$$$$
1ajp_ligand


 14 14  0  0  0  0  0  0  0  0999 V2000
   15.1596   38.4521   37.0698 C   0  0  0  0  0  0  0  0  0  0  0  0
   14.0957   38.3940   36.1755 C   0  0  0  0  0  0  0  0  0  0  0  0
   13.8177   37.2011   35.5508 C   0  0  0  0  0  0  0  0  0  0  0  0
   12.8043   36.9890   34.6455 O   0  0  0  0  0  0  0  0  0  0  0  0
   14.5448   36.0341   35.7641 C   0  0  0  0  0  0  0  0  0  0  0  0
   15.5869   36.0957   36.6503 C   0  0  0  0  0  0  0  0  0  0  0  0
   15.8931   37.2903   37.2690 C   0  0  0  0  0  0  0  0  0  0  0  0
   16.7529   37.2339   37.9409 O   0  0  0  0  0  0  0  0  0  0  0  0
   12.2181   36.3198   34.9790 H   0  0  0  0  0  0  0  0  0  0  0  0
   16.9058   38.0871   38.3299 H   0  0  0  0  0  0  0  0  0  0  0  0
   15.4808   39.7457   37.7779 C   0  0  0  0  0  0  0  0  0  0  0  0
   16.3025   40.7428   36.9467 C   0  0  0  0  0  0  0  0  0  0  0  0
   15.8460   41.8497   36.6880 O   0  0  0  0  0  0  0  0  0  0  0  0
   17.4069   40.4500   36.4824 O   0  0  0  0  0  0  0  0  0  0  0  0
 12 14  2  0  0  0
 12 13  2  0  0  0
 12 11  1  0  0  0
 11  1  1  0  0  0
  1  7  2  0  0  0
  1  2  1  0  0  0
  2  3  2  0  0  0
  3  5  1  0  0  0
  3  4  1  0  0  0
  5  6  2  0  0  0
  6  7  1  0  0  0
  7  8  1  0  0  0
  4  9  1  0  0  0
  8 10  1  0  0  0
M  CHG 1  12  -1
M  END
> <minimizedAffinity>
-5.64157

$$$$
1ajp_ligand


 14 14  0  0  0  0  0  0  0  0999 V2000
   13.3314   35.7855   35.9921 C   0  0  0  0  0  0  0  0  0  0  0  0
   13.4352   35.4433   37.3364 C   0  0  0  0  0  0  0  0  0  0  0  0
   14.0647   36.3124   38.1961 C   0  0  0  0  0  0  0  0  0  0  0  0
   14.2448   36.1136   39.5450 O   0  0  0  0  0  0  0  0  0  0  0  0
   14.6087   37.5292   37.7970 C   0  0  0  0  0  0  0  0  0  0  0  0
   14.4978   37.8637   36.4737 C   0  0  0  0  0  0  0  0  0  0  0  0
   13.8888   36.9930   35.5936 C   0  0  0  0  0  0  0  0  0  0  0  0
   13.8705   37.3477   34.5603 O   0  0  0  0  0  0  0  0  0  0  0  0
   13.8181   36.8124   40.0268 H   0  0  0  0  0  0  0  0  0  0  0  0
   13.4392   36.7023   34.0127 H   0  0  0  0  0  0  0  0  0  0  0  0
   12.6362   34.8554   35.0279 C   0  0  0  0  0  0  0  0  0  0  0  0
   11.1944   35.2561   34.6800 C   0  0  0  0  0  0  0  0  0  0  0  0
   10.9818   36.2416   33.9840 O   0  0  0  0  0  0  0  0  0  0  0  0
   10.2220   34.6384   35.1200 O   0  0  0  0  0  0  0  0  0  0  0  0
 12 14  2  0  0  0
 12 13  2  0  0  0
 12 11  1  0  0  0
 11  1  1  0  0  0
  1  7  2  0  0  0
  1  2  1  0  0  0
  2  3  2  0  0  0
  3  5  1  0  0  0
  3  4  1  0  0  0
  5  6  2  0  0  0
  6  7  1  0  0  0
  7  8  1  0  0  0
  4  9  1  0  0  0
  8 10  1  0  0  0
M  CHG 1  12  -1
M  END
> <minimizedAffinity>
-5.60088

$$$$
