1afk_ligand


 34 36  0  0  0  0  0  0  0  0999 V2000
   37.8905   -6.7178   19.9203 C   0  0  0  0  0  0  0  0  0  0  0  0
   37.2034   -6.0597   18.8507 O   0  0  0  0  0  0  0  0  0  0  0  0
   38.9389   -7.6582   19.2656 C   0  0  0  0  0  0  0  0  0  0  0  0
   39.0789   -7.0227   17.8877 C   0  0  0  0  0  0  0  0  0  0  0  0
   39.6180   -7.9670   16.9361 O   0  0  0  0  0  0  0  0  0  0  0  0
   37.5767   -6.7542   17.6704 C   0  0  0  0  0  0  0  0  0  0  0  0
   39.1585   -8.7945   17.0177 H   0  0  0  0  0  0  0  0  0  0  0  0
   37.2165   -5.8288   16.5726 N   0  0  0  0  0  0  0  0  0  0  0  0
   36.3366   -6.1693   15.5758 C   0  0  0  0  0  0  0  0  0  0  0  0
   36.1487   -5.2354   14.6910 N   0  0  0  0  0  0  0  0  0  0  0  0
   36.9780   -4.1506   15.1211 C   0  0  0  0  0  0  0  0  0  0  0  0
   37.2058   -2.8153   14.5763 C   0  0  0  0  0  0  0  0  0  0  0  0
   36.6732   -2.4101   13.4071 N   0  0  0  0  0  0  0  0  0  0  0  0
   38.0488   -1.9989   15.2619 N   0  0  0  0  0  0  0  0  0  0  0  0
   38.6259   -2.4819   16.3720 C   0  0  0  0  0  0  0  0  0  0  0  0
   38.5169   -3.6883   16.9795 N   0  0  0  0  0  0  0  0  0  0  0  0
   37.6459   -4.5055   16.2881 C   0  0  0  0  0  0  0  0  0  0  0  0
   36.8592   -1.4588   13.0586 H   0  0  0  0  0  0  0  0  0  0  0  0
   36.0799   -3.0516   12.8616 H   0  0  0  0  0  0  0  0  0  0  0  0
   38.5088   -5.6243   20.7411 C   0  0  0  0  0  0  0  0  0  0  0  0
   37.4421   -4.7684   21.1004 O   0  0  0  0  0  0  0  0  0  0  0  0
   36.9021   -4.7050   22.6348 P   0  0  0  0  0  0  0  0  0  0  0  0
   35.7625   -3.7405   22.6501 O   0  0  0  0  0  0  0  0  0  0  0  0
   36.6636   -6.0925   23.1167 O   0  0  0  0  0  0  0  0  0  0  0  0
   38.1436   -3.8829   23.4947 O   0  0  0  0  0  0  0  0  0  0  0  0
   38.7589   -2.3588   23.5868 P   0  0  0  0  0  0  0  0  0  0  0  0
   39.9141   -2.4615   24.5010 O   0  0  0  0  0  0  0  0  0  0  0  0
   39.1130   -2.0394   22.1622 O   0  0  0  0  0  0  0  0  0  0  0  0
   37.6502   -1.5306   24.1158 O   0  0  0  0  0  0  0  0  0  0  0  0
   38.3907   -9.0047   19.1754 O   0  0  0  0  0  0  0  0  0  0  0  0
   39.2799  -10.3502   19.7371 P   0  0  0  0  0  0  0  0  0  0  0  0
   40.2331  -10.5370   18.6151 O   0  0  0  0  0  0  0  0  0  0  0  0
   39.8788   -9.8388   20.9962 O   0  0  0  0  0  0  0  0  0  0  0  0
   38.2853  -11.4417   19.9684 O   0  0  0  0  0  0  0  0  0  0  0  0
 26 25  1  0  0  0
 26 29  2  0  0  0
 26 28  2  0  0  0
 26 27  2  0  0  0
 25 22  1  0  0  0
 22 21  1  0  0  0
 22 24  2  0  0  0
 22 23  2  0  0  0
 21 20  1  0  0  0
 20  1  1  0  0  0
  1  3  1  0  0  0
  1  2  1  0  0  0
  2  6  1  0  0  0
  6  8  1  0  0  0
  6  4  1  0  0  0
  4  5  1  0  0  0
  4  3  1  0  0  0
  3 30  1  0  0  0
 30 31  1  0  0  0
 31 34  2  0  0  0
 31 33  2  0  0  0
 31 32  2  0  0  0
  8 17  1  0  0  0
  8  9  1  0  0  0
  9 10  2  0  0  0
 10 11  1  0  0  0
 11 17  2  0  0  0
 11 12  1  0  0  0
 12 14  2  0  0  0
 12 13  1  0  0  0
 14 15  1  0  0  0
 15 16  2  0  0  0
 16 17  1  0  0  0
  5  7  1  0  0  0
 13 18  1  0  0  0
 13 19  1  0  0  0
M  END
> <minimizedAffinity>
-6.91391

$$$$
1afk_ligand


 34 36  0  0  0  0  0  0  0  0999 V2000
   37.7855   -7.3713   19.2654 C   0  0  0  0  0  0  0  0  0  0  0  0
   37.1230   -6.5368   18.3093 O   0  0  0  0  0  0  0  0  0  0  0  0
   38.7275   -8.3093   18.4623 C   0  0  0  0  0  0  0  0  0  0  0  0
   38.8766   -7.5278   17.1626 C   0  0  0  0  0  0  0  0  0  0  0  0
   39.3014   -8.3929   16.0860 O   0  0  0  0  0  0  0  0  0  0  0  0
   37.3967   -7.1140   17.0418 C   0  0  0  0  0  0  0  0  0  0  0  0
   38.7755   -9.1840   16.0906 H   0  0  0  0  0  0  0  0  0  0  0  0
   37.0817   -6.0383   16.0748 N   0  0  0  0  0  0  0  0  0  0  0  0
   36.2270   -6.2209   15.0165 C   0  0  0  0  0  0  0  0  0  0  0  0
   36.0781   -5.1695   14.2664 N   0  0  0  0  0  0  0  0  0  0  0  0
   36.9092   -4.1701   14.8665 C   0  0  0  0  0  0  0  0  0  0  0  0
   37.1712   -2.7761   14.5203 C   0  0  0  0  0  0  0  0  0  0  0  0
   36.6788   -2.2024   13.4052 N   0  0  0  0  0  0  0  0  0  0  0  0
   38.0046   -2.0784   15.3361 N   0  0  0  0  0  0  0  0  0  0  0  0
   38.5422   -2.7215   16.3830 C   0  0  0  0  0  0  0  0  0  0  0  0
   38.3988   -3.9988   16.8126 N   0  0  0  0  0  0  0  0  0  0  0  0
   37.5375   -4.6961   15.9901 C   0  0  0  0  0  0  0  0  0  0  0  0
   36.8880   -1.2153   13.1985 H   0  0  0  0  0  0  0  0  0  0  0  0
   36.0931   -2.7509   12.7594 H   0  0  0  0  0  0  0  0  0  0  0  0
   38.5218   -6.4372   20.1804 C   0  0  0  0  0  0  0  0  0  0  0  0
   37.5222   -5.7049   20.8615 O   0  0  0  0  0  0  0  0  0  0  0  0
   37.7559   -5.1928   22.3890 P   0  0  0  0  0  0  0  0  0  0  0  0
   36.4793   -5.4360   23.1241 O   0  0  0  0  0  0  0  0  0  0  0  0
   39.0052   -5.8072   22.9145 O   0  0  0  0  0  0  0  0  0  0  0  0
   37.8333   -3.4798   22.2619 O   0  0  0  0  0  0  0  0  0  0  0  0
   37.5726   -2.1728   23.2281 P   0  0  0  0  0  0  0  0  0  0  0  0
   37.6091   -2.6972   24.6082 O   0  0  0  0  0  0  0  0  0  0  0  0
   38.7046   -1.2493   22.8779 O   0  0  0  0  0  0  0  0  0  0  0  0
   36.2455   -1.6552   22.8207 O   0  0  0  0  0  0  0  0  0  0  0  0
   38.0631   -9.5864   18.2400 O   0  0  0  0  0  0  0  0  0  0  0  0
   38.6077  -11.0032   19.0228 P   0  0  0  0  0  0  0  0  0  0  0  0
   37.7677  -12.0269   18.3530 O   0  0  0  0  0  0  0  0  0  0  0  0
   40.0487  -11.0361   18.6652 O   0  0  0  0  0  0  0  0  0  0  0  0
   38.3764  -10.7889   20.4838 O   0  0  0  0  0  0  0  0  0  0  0  0
 26 25  1  0  0  0
 26 29  2  0  0  0
 26 28  2  0  0  0
 26 27  2  0  0  0
 25 22  1  0  0  0
 22 21  1  0  0  0
 22 24  2  0  0  0
 22 23  2  0  0  0
 21 20  1  0  0  0
 20  1  1  0  0  0
  1  3  1  0  0  0
  1  2  1  0  0  0
  2  6  1  0  0  0
  6  8  1  0  0  0
  6  4  1  0  0  0
  4  5  1  0  0  0
  4  3  1  0  0  0
  3 30  1  0  0  0
 30 31  1  0  0  0
 31 34  2  0  0  0
 31 33  2  0  0  0
 31 32  2  0  0  0
  8 17  1  0  0  0
  8  9  1  0  0  0
  9 10  2  0  0  0
 10 11  1  0  0  0
 11 17  2  0  0  0
 11 12  1  0  0  0
 12 14  2  0  0  0
 12 13  1  0  0  0
 14 15  1  0  0  0
 15 16  2  0  0  0
 16 17  1  0  0  0
  5  7  1  0  0  0
 13 18  1  0  0  0
 13 19  1  0  0  0
M  END
> <minimizedAffinity>
-6.83981

$$$$
1afk_ligand


 34 36  0  0  0  0  0  0  0  0999 V2000
   37.6085   -7.4647   18.9030 C   0  0  0  0  0  0  0  0  0  0  0  0
   37.4068   -6.1412   18.3959 O   0  0  0  0  0  0  0  0  0  0  0  0
   38.6828   -8.1298   17.9998 C   0  0  0  0  0  0  0  0  0  0  0  0
   39.3531   -6.9028   17.3939 C   0  0  0  0  0  0  0  0  0  0  0  0
   40.0494   -7.2442   16.1747 O   0  0  0  0  0  0  0  0  0  0  0  0
   38.0564   -6.1109   17.1342 C   0  0  0  0  0  0  0  0  0  0  0  0
   39.4852   -7.7785   15.6281 H   0  0  0  0  0  0  0  0  0  0  0  0
   38.2043   -4.6689   16.8340 N   0  0  0  0  0  0  0  0  0  0  0  0
   39.0088   -3.8375   17.5724 C   0  0  0  0  0  0  0  0  0  0  0  0
   39.0071   -2.6013   17.1698 N   0  0  0  0  0  0  0  0  0  0  0  0
   38.1172   -2.5819   16.0486 C   0  0  0  0  0  0  0  0  0  0  0  0
   37.6970   -1.5113   15.1491 C   0  0  0  0  0  0  0  0  0  0  0  0
   38.0626   -0.2275   15.3316 N   0  0  0  0  0  0  0  0  0  0  0  0
   36.8478   -1.8427   14.1412 N   0  0  0  0  0  0  0  0  0  0  0  0
   36.4403   -3.1177   14.0572 C   0  0  0  0  0  0  0  0  0  0  0  0
   36.7359   -4.1990   14.8186 N   0  0  0  0  0  0  0  0  0  0  0  0
   37.6124   -3.8590   15.8290 C   0  0  0  0  0  0  0  0  0  0  0  0
   37.7438    0.4973   14.6728 H   0  0  0  0  0  0  0  0  0  0  0  0
   38.6609    0.0292   16.1298 H   0  0  0  0  0  0  0  0  0  0  0  0
   38.0566   -7.2922   20.3247 C   0  0  0  0  0  0  0  0  0  0  0  0
   37.6198   -6.0030   20.7077 O   0  0  0  0  0  0  0  0  0  0  0  0
   37.7840   -5.4868   22.2429 P   0  0  0  0  0  0  0  0  0  0  0  0
   36.7338   -6.1818   23.0449 O   0  0  0  0  0  0  0  0  0  0  0  0
   39.2066   -5.6417   22.6510 O   0  0  0  0  0  0  0  0  0  0  0  0
   37.2538   -3.8515   22.2065 O   0  0  0  0  0  0  0  0  0  0  0  0
   37.4908   -2.4736   23.0753 P   0  0  0  0  0  0  0  0  0  0  0  0
   38.7300   -1.8812   22.5327 O   0  0  0  0  0  0  0  0  0  0  0  0
   36.2459   -1.6758   22.8098 O   0  0  0  0  0  0  0  0  0  0  0  0
   37.6103   -2.9244   24.4816 O   0  0  0  0  0  0  0  0  0  0  0  0
   38.0251   -8.9335   16.9784 O   0  0  0  0  0  0  0  0  0  0  0  0
   38.6143  -10.4842   16.5723 P   0  0  0  0  0  0  0  0  0  0  0  0
   38.1089  -11.2789   17.7192 O   0  0  0  0  0  0  0  0  0  0  0  0
   37.9461  -10.7538   15.2737 O   0  0  0  0  0  0  0  0  0  0  0  0
   40.0973  -10.3478   16.4452 O   0  0  0  0  0  0  0  0  0  0  0  0
 26 25  1  0  0  0
 26 29  2  0  0  0
 26 28  2  0  0  0
 26 27  2  0  0  0
 25 22  1  0  0  0
 22 21  1  0  0  0
 22 24  2  0  0  0
 22 23  2  0  0  0
 21 20  1  0  0  0
 20  1  1  0  0  0
  1  3  1  0  0  0
  1  2  1  0  0  0
  2  6  1  0  0  0
  6  8  1  0  0  0
  6  4  1  0  0  0
  4  5  1  0  0  0
  4  3  1  0  0  0
  3 30  1  0  0  0
 30 31  1  0  0  0
 31 34  2  0  0  0
 31 33  2  0  0  0
 31 32  2  0  0  0
  8 17  1  0  0  0
  8  9  1  0  0  0
  9 10  2  0  0  0
 10 11  1  0  0  0
 11 17  2  0  0  0
 11 12  1  0  0  0
 12 14  2  0  0  0
 12 13  1  0  0  0
 14 15  1  0  0  0
 15 16  2  0  0  0
 16 17  1  0  0  0
  5  7  1  0  0  0
 13 18  1  0  0  0
 13 19  1  0  0  0
M  END
> <minimizedAffinity>
-6.46552

$$$$
1afk_ligand


 34 36  0  0  0  0  0  0  0  0999 V2000
   39.1162   -5.4010   20.6910 C   0  0  0  0  0  0  0  0  0  0  0  0
   38.4228   -4.7830   19.6018 O   0  0  0  0  0  0  0  0  0  0  0  0
   40.1643   -6.3614   20.0654 C   0  0  0  0  0  0  0  0  0  0  0  0
   40.2966   -5.7749   18.6652 C   0  0  0  0  0  0  0  0  0  0  0  0
   40.8340   -6.7510   17.7453 O   0  0  0  0  0  0  0  0  0  0  0  0
   38.7927   -5.5180   18.4453 C   0  0  0  0  0  0  0  0  0  0  0  0
   40.3771   -7.5762   17.8583 H   0  0  0  0  0  0  0  0  0  0  0  0
   38.4253   -4.6331   17.3169 N   0  0  0  0  0  0  0  0  0  0  0  0
   38.8701   -3.3386   17.2157 C   0  0  0  0  0  0  0  0  0  0  0  0
   38.4375   -2.7088   16.1639 N   0  0  0  0  0  0  0  0  0  0  0  0
   37.6180   -3.6611   15.4775 C   0  0  0  0  0  0  0  0  0  0  0  0
   36.8613   -3.5850   14.2311 C   0  0  0  0  0  0  0  0  0  0  0  0
   36.7451   -2.4446   13.5234 N   0  0  0  0  0  0  0  0  0  0  0  0
   36.2022   -4.7052   13.8339 N   0  0  0  0  0  0  0  0  0  0  0  0
   36.2743   -5.7885   14.6211 C   0  0  0  0  0  0  0  0  0  0  0  0
   36.9207   -5.9954   15.7941 N   0  0  0  0  0  0  0  0  0  0  0  0
   37.6023   -4.8599   16.1821 C   0  0  0  0  0  0  0  0  0  0  0  0
   36.2016   -2.4345   12.6485 H   0  0  0  0  0  0  0  0  0  0  0  0
   37.1997   -1.5827   13.8572 H   0  0  0  0  0  0  0  0  0  0  0  0
   39.7353   -4.2775   21.4697 C   0  0  0  0  0  0  0  0  0  0  0  0
   39.0202   -4.2197   22.6882 O   0  0  0  0  0  0  0  0  0  0  0  0
   39.5790   -3.3482   23.9446 P   0  0  0  0  0  0  0  0  0  0  0  0
   39.5195   -4.2356   25.1438 O   0  0  0  0  0  0  0  0  0  0  0  0
   40.8890   -2.7508   23.5685 O   0  0  0  0  0  0  0  0  0  0  0  0
   38.3510   -2.1813   24.2394 O   0  0  0  0  0  0  0  0  0  0  0  0
   37.6019   -0.9663   23.4194 P   0  0  0  0  0  0  0  0  0  0  0  0
   37.3288    0.0739   24.4314 O   0  0  0  0  0  0  0  0  0  0  0  0
   38.6102   -0.5768   22.3761 O   0  0  0  0  0  0  0  0  0  0  0  0
   36.3801   -1.5841   22.8531 O   0  0  0  0  0  0  0  0  0  0  0  0
   39.6193   -7.7117   20.0255 O   0  0  0  0  0  0  0  0  0  0  0  0
   40.5875   -9.0578   20.4345 P   0  0  0  0  0  0  0  0  0  0  0  0
   39.5624   -9.9729   20.9950 O   0  0  0  0  0  0  0  0  0  0  0  0
   41.1465   -9.4648   19.1202 O   0  0  0  0  0  0  0  0  0  0  0  0
   41.6305   -8.5515   21.3777 O   0  0  0  0  0  0  0  0  0  0  0  0
 26 25  1  0  0  0
 26 29  2  0  0  0
 26 28  2  0  0  0
 26 27  2  0  0  0
 25 22  1  0  0  0
 22 21  1  0  0  0
 22 24  2  0  0  0
 22 23  2  0  0  0
 21 20  1  0  0  0
 20  1  1  0  0  0
  1  3  1  0  0  0
  1  2  1  0  0  0
  2  6  1  0  0  0
  6  8  1  0  0  0
  6  4  1  0  0  0
  4  5  1  0  0  0
  4  3  1  0  0  0
  3 30  1  0  0  0
 30 31  1  0  0  0
 31 34  2  0  0  0
 31 33  2  0  0  0
 31 32  2  0  0  0
  8 17  1  0  0  0
  8  9  1  0  0  0
  9 10  2  0  0  0
 10 11  1  0  0  0
 11 17  2  0  0  0
 11 12  1  0  0  0
 12 14  2  0  0  0
 12 13  1  0  0  0
 14 15  1  0  0  0
 15 16  2  0  0  0
 16 17  1  0  0  0
  5  7  1  0  0  0
 13 18  1  0  0  0
 13 19  1  0  0  0
M  END
> <minimizedAffinity>
-6.27068

$$$$
1afk_ligand


 34 36  0  0  0  0  0  0  0  0999 V2000
   39.4599   -7.3787   19.3718 C   0  0  0  0  0  0  0  0  0  0  0  0
   39.4192   -6.5134   18.2321 O   0  0  0  0  0  0  0  0  0  0  0  0
   38.7934   -6.6063   20.5428 C   0  0  0  0  0  0  0  0  0  0  0  0
   37.9717   -5.5745   19.7798 C   0  0  0  0  0  0  0  0  0  0  0  0
   37.6449   -4.4481   20.6239 O   0  0  0  0  0  0  0  0  0  0  0  0
   39.0514   -5.2372   18.7327 C   0  0  0  0  0  0  0  0  0  0  0  0
   38.4240   -4.1653   21.0882 H   0  0  0  0  0  0  0  0  0  0  0  0
   38.6081   -4.4887   17.5349 N   0  0  0  0  0  0  0  0  0  0  0  0
   39.0550   -3.2238   17.2447 C   0  0  0  0  0  0  0  0  0  0  0  0
   38.5503   -2.7182   16.1585 N   0  0  0  0  0  0  0  0  0  0  0  0
   37.6739   -3.7320   15.6549 C   0  0  0  0  0  0  0  0  0  0  0  0
   36.8269   -3.7939   14.4672 C   0  0  0  0  0  0  0  0  0  0  0  0
   36.6677   -2.7453   13.6364 N   0  0  0  0  0  0  0  0  0  0  0  0
   36.1306   -4.9421   14.2585 N   0  0  0  0  0  0  0  0  0  0  0  0
   36.2522   -5.9236   15.1643 C   0  0  0  0  0  0  0  0  0  0  0  0
   36.9826   -5.9986   16.3034 N   0  0  0  0  0  0  0  0  0  0  0  0
   37.7008   -4.8365   16.4994 C   0  0  0  0  0  0  0  0  0  0  0  0
   36.0605   -2.8315   12.8088 H   0  0  0  0  0  0  0  0  0  0  0  0
   37.1532   -1.8575   13.8287 H   0  0  0  0  0  0  0  0  0  0  0  0
   38.7054   -8.6131   18.9731 C   0  0  0  0  0  0  0  0  0  0  0  0
   38.6465   -9.4154   20.1360 O   0  0  0  0  0  0  0  0  0  0  0  0
   39.7725  -10.5557   20.4226 P   0  0  0  0  0  0  0  0  0  0  0  0
   40.6050  -10.6579   19.1874 O   0  0  0  0  0  0  0  0  0  0  0  0
   40.4498  -10.2471   21.7111 O   0  0  0  0  0  0  0  0  0  0  0  0
   38.8931  -12.0331   20.4452 O   0  0  0  0  0  0  0  0  0  0  0  0
   38.1952  -13.0193   21.5633 P   0  0  0  0  0  0  0  0  0  0  0  0
   37.1518  -13.7621   20.8280 O   0  0  0  0  0  0  0  0  0  0  0  0
   39.3407  -13.8616   22.0483 O   0  0  0  0  0  0  0  0  0  0  0  0
   37.6598  -12.1045   22.5985 O   0  0  0  0  0  0  0  0  0  0  0  0
   39.8247   -5.9703   21.3513 O   0  0  0  0  0  0  0  0  0  0  0  0
   39.5008   -5.4817   22.9553 P   0  0  0  0  0  0  0  0  0  0  0  0
   40.5806   -6.1941   23.6826 O   0  0  0  0  0  0  0  0  0  0  0  0
   39.6561   -4.0066   22.8812 O   0  0  0  0  0  0  0  0  0  0  0  0
   38.0969   -5.9042   23.2457 O   0  0  0  0  0  0  0  0  0  0  0  0
 26 25  1  0  0  0
 26 29  2  0  0  0
 26 28  2  0  0  0
 26 27  2  0  0  0
 25 22  1  0  0  0
 22 21  1  0  0  0
 22 24  2  0  0  0
 22 23  2  0  0  0
 21 20  1  0  0  0
 20  1  1  0  0  0
  1  3  1  0  0  0
  1  2  1  0  0  0
  2  6  1  0  0  0
  6  8  1  0  0  0
  6  4  1  0  0  0
  4  5  1  0  0  0
  4  3  1  0  0  0
  3 30  1  0  0  0
 30 31  1  0  0  0
 31 34  2  0  0  0
 31 33  2  0  0  0
 31 32  2  0  0  0
  8 17  1  0  0  0
  8  9  1  0  0  0
  9 10  2  0  0  0
 10 11  1  0  0  0
 11 17  2  0  0  0
 11 12  1  0  0  0
 12 14  2  0  0  0
 12 13  1  0  0  0
 14 15  1  0  0  0
 15 16  2  0  0  0
 16 17  1  0  0  0
  5  7  1  0  0  0
 13 18  1  0  0  0
 13 19  1  0  0  0
M  END
> <minimizedAffinity>
-6.26939

$$$$
1afk_ligand


 34 36  0  0  0  0  0  0  0  0999 V2000
   40.2583   -6.5871   20.8809 C   0  0  0  0  0  0  0  0  0  0  0  0
   39.9043   -6.2362   19.5389 O   0  0  0  0  0  0  0  0  0  0  0  0
   39.2007   -5.9286   21.8082 C   0  0  0  0  0  0  0  0  0  0  0  0
   38.0530   -5.7092   20.8301 C   0  0  0  0  0  0  0  0  0  0  0  0
   37.1486   -4.6921   21.3153 O   0  0  0  0  0  0  0  0  0  0  0  0
   38.9218   -5.2184   19.6552 C   0  0  0  0  0  0  0  0  0  0  0  0
   37.6486   -3.9421   21.6150 H   0  0  0  0  0  0  0  0  0  0  0  0
   38.2792   -5.1768   18.3223 N   0  0  0  0  0  0  0  0  0  0  0  0
   37.4683   -6.1829   17.8595 C   0  0  0  0  0  0  0  0  0  0  0  0
   37.0004   -5.9803   16.6635 N   0  0  0  0  0  0  0  0  0  0  0  0
   37.5410   -4.7153   16.2676 C   0  0  0  0  0  0  0  0  0  0  0  0
   37.3872   -3.9208   15.0523 C   0  0  0  0  0  0  0  0  0  0  0  0
   36.7094   -4.3669   13.9768 N   0  0  0  0  0  0  0  0  0  0  0  0
   38.0234   -2.7206   15.0087 N   0  0  0  0  0  0  0  0  0  0  0  0
   38.7613   -2.3622   16.0697 C   0  0  0  0  0  0  0  0  0  0  0  0
   38.9994   -2.9959   17.2436 N   0  0  0  0  0  0  0  0  0  0  0  0
   38.3361   -4.2054   17.2882 C   0  0  0  0  0  0  0  0  0  0  0  0
   36.6247   -3.7738   13.1390 H   0  0  0  0  0  0  0  0  0  0  0  0
   36.2759   -5.3011   13.9925 H   0  0  0  0  0  0  0  0  0  0  0  0
   40.2347   -8.0867   20.9295 C   0  0  0  0  0  0  0  0  0  0  0  0
   39.8126   -8.5025   19.6456 O   0  0  0  0  0  0  0  0  0  0  0  0
   38.6583   -9.6374   19.4722 P   0  0  0  0  0  0  0  0  0  0  0  0
   37.3773   -9.0210   19.9285 O   0  0  0  0  0  0  0  0  0  0  0  0
   38.7291  -10.1858   18.0908 O   0  0  0  0  0  0  0  0  0  0  0  0
   39.0092  -10.7983   20.6912 O   0  0  0  0  0  0  0  0  0  0  0  0
   38.5074  -12.3067   21.1185 P   0  0  0  0  0  0  0  0  0  0  0  0
   37.5556  -12.0989   22.2284 O   0  0  0  0  0  0  0  0  0  0  0  0
   37.8918  -12.8397   19.8561 O   0  0  0  0  0  0  0  0  0  0  0  0
   39.7424  -13.0218   21.5167 O   0  0  0  0  0  0  0  0  0  0  0  0
   39.7190   -4.6632   22.3102 O   0  0  0  0  0  0  0  0  0  0  0  0
   39.5133   -4.2219   23.9471 P   0  0  0  0  0  0  0  0  0  0  0  0
   38.1789   -3.5750   23.8914 O   0  0  0  0  0  0  0  0  0  0  0  0
   39.5508   -5.5336   24.6425 O   0  0  0  0  0  0  0  0  0  0  0  0
   40.6749   -3.3474   24.2935 O   0  0  0  0  0  0  0  0  0  0  0  0
 26 25  1  0  0  0
 26 29  2  0  0  0
 26 28  2  0  0  0
 26 27  2  0  0  0
 25 22  1  0  0  0
 22 21  1  0  0  0
 22 24  2  0  0  0
 22 23  2  0  0  0
 21 20  1  0  0  0
 20  1  1  0  0  0
  1  3  1  0  0  0
  1  2  1  0  0  0
  2  6  1  0  0  0
  6  8  1  0  0  0
  6  4  1  0  0  0
  4  5  1  0  0  0
  4  3  1  0  0  0
  3 30  1  0  0  0
 30 31  1  0  0  0
 31 34  2  0  0  0
 31 33  2  0  0  0
 31 32  2  0  0  0
  8 17  1  0  0  0
  8  9  1  0  0  0
  9 10  2  0  0  0
 10 11  1  0  0  0
 11 17  2  0  0  0
 11 12  1  0  0  0
 12 14  2  0  0  0
 12 13  1  0  0  0
 14 15  1  0  0  0
 15 16  2  0  0  0
 16 17  1  0  0  0
  5  7  1  0  0  0
 13 18  1  0  0  0
 13 19  1  0  0  0
M  END
> <minimizedAffinity>
-6.18940

$$$$
1afk_ligand


 34 36  0  0  0  0  0  0  0  0999 V2000
   38.4133   -4.4911   17.3983 C   0  0  0  0  0  0  0  0  0  0  0  0
   39.0586   -3.2222   17.5490 O   0  0  0  0  0  0  0  0  0  0  0  0
   38.8934   -5.0779   16.0427 C   0  0  0  0  0  0  0  0  0  0  0  0
   40.1801   -4.2910   15.8250 C   0  0  0  0  0  0  0  0  0  0  0  0
   40.5598   -4.2980   14.4309 O   0  0  0  0  0  0  0  0  0  0  0  0
   39.6252   -2.9273   16.2814 C   0  0  0  0  0  0  0  0  0  0  0  0
   39.8007   -4.0977   13.8960 H   0  0  0  0  0  0  0  0  0  0  0  0
   40.6163   -1.8642   16.5627 N   0  0  0  0  0  0  0  0  0  0  0  0
   41.9280   -2.1353   16.8624 C   0  0  0  0  0  0  0  0  0  0  0  0
   42.6501   -1.0785   17.0905 N   0  0  0  0  0  0  0  0  0  0  0  0
   41.7490    0.0226   16.9324 C   0  0  0  0  0  0  0  0  0  0  0  0
   41.9380    1.4666   17.0367 C   0  0  0  0  0  0  0  0  0  0  0  0
   43.1021    2.0174   17.4325 N   0  0  0  0  0  0  0  0  0  0  0  0
   40.8595    2.2551   16.7875 N   0  0  0  0  0  0  0  0  0  0  0  0
   39.6987    1.6544   16.4867 C   0  0  0  0  0  0  0  0  0  0  0  0
   39.3796    0.3428   16.3674 N   0  0  0  0  0  0  0  0  0  0  0  0
   40.4834   -0.4511   16.6041 C   0  0  0  0  0  0  0  0  0  0  0  0
   43.1931    3.0417   17.4924 H   0  0  0  0  0  0  0  0  0  0  0  0
   43.9010    1.4143   17.6752 H   0  0  0  0  0  0  0  0  0  0  0  0
   38.8421   -5.3091   18.5810 C   0  0  0  0  0  0  0  0  0  0  0  0
   38.5210   -4.5320   19.7178 O   0  0  0  0  0  0  0  0  0  0  0  0
   38.4955   -5.1960   21.2040 P   0  0  0  0  0  0  0  0  0  0  0  0
   37.7260   -6.4705   21.0924 O   0  0  0  0  0  0  0  0  0  0  0  0
   39.8871   -5.2511   21.7281 O   0  0  0  0  0  0  0  0  0  0  0  0
   37.4581   -4.1716   22.1156 O   0  0  0  0  0  0  0  0  0  0  0  0
   37.5742   -2.7720   22.9743 P   0  0  0  0  0  0  0  0  0  0  0  0
   38.7389   -2.0638   22.4060 O   0  0  0  0  0  0  0  0  0  0  0  0
   36.2521   -2.1021   22.7291 O   0  0  0  0  0  0  0  0  0  0  0  0
   37.7632   -3.2006   24.3799 O   0  0  0  0  0  0  0  0  0  0  0  0
   37.9087   -4.7802   15.0114 O   0  0  0  0  0  0  0  0  0  0  0  0
   36.6684   -5.8937   14.6394 P   0  0  0  0  0  0  0  0  0  0  0  0
   37.2576   -7.1482   15.1699 O   0  0  0  0  0  0  0  0  0  0  0  0
   35.5155   -5.3622   15.4100 O   0  0  0  0  0  0  0  0  0  0  0  0
   36.4650   -5.8144   13.1608 O   0  0  0  0  0  0  0  0  0  0  0  0
 26 25  1  0  0  0
 26 29  2  0  0  0
 26 28  2  0  0  0
 26 27  2  0  0  0
 25 22  1  0  0  0
 22 21  1  0  0  0
 22 24  2  0  0  0
 22 23  2  0  0  0
 21 20  1  0  0  0
 20  1  1  0  0  0
  1  3  1  0  0  0
  1  2  1  0  0  0
  2  6  1  0  0  0
  6  8  1  0  0  0
  6  4  1  0  0  0
  4  5  1  0  0  0
  4  3  1  0  0  0
  3 30  1  0  0  0
 30 31  1  0  0  0
 31 34  2  0  0  0
 31 33  2  0  0  0
 31 32  2  0  0  0
  8 17  1  0  0  0
  8  9  1  0  0  0
  9 10  2  0  0  0
 10 11  1  0  0  0
 11 17  2  0  0  0
 11 12  1  0  0  0
 12 14  2  0  0  0
 12 13  1  0  0  0
 14 15  1  0  0  0
 15 16  2  0  0  0
 16 17  1  0  0  0
  5  7  1  0  0  0
 13 18  1  0  0  0
 13 19  1  0  0  0
M  END
> <minimizedAffinity>
-6.09744

$$$$
1afk_ligand


 34 36  0  0  0  0  0  0  0  0999 V2000
   38.6087   -6.0434   20.8970 C   0  0  0  0  0  0  0  0  0  0  0  0
   38.0010   -5.3946   19.7749 O   0  0  0  0  0  0  0  0  0  0  0  0
   39.7680   -6.9117   20.3365 C   0  0  0  0  0  0  0  0  0  0  0  0
   40.0147   -6.2351   18.9936 C   0  0  0  0  0  0  0  0  0  0  0  0
   40.6989   -7.1260   18.0847 O   0  0  0  0  0  0  0  0  0  0  0  0
   38.5306   -6.0388   18.6264 C   0  0  0  0  0  0  0  0  0  0  0  0
   40.2786   -7.9778   18.1015 H   0  0  0  0  0  0  0  0  0  0  0  0
   38.2361   -5.1057   17.5156 N   0  0  0  0  0  0  0  0  0  0  0  0
   38.7283   -3.8251   17.4740 C   0  0  0  0  0  0  0  0  0  0  0  0
   38.3571   -3.1470   16.4288 N   0  0  0  0  0  0  0  0  0  0  0  0
   37.5319   -4.0471   15.6816 C   0  0  0  0  0  0  0  0  0  0  0  0
   36.8254   -3.9044   14.4118 C   0  0  0  0  0  0  0  0  0  0  0  0
   36.7748   -2.7384   13.7389 N   0  0  0  0  0  0  0  0  0  0  0  0
   36.1437   -4.9872   13.9538 N   0  0  0  0  0  0  0  0  0  0  0  0
   36.1494   -6.0972   14.7065 C   0  0  0  0  0  0  0  0  0  0  0  0
   36.7439   -6.3644   15.8946 N   0  0  0  0  0  0  0  0  0  0  0  0
   37.4488   -5.2666   16.3448 C   0  0  0  0  0  0  0  0  0  0  0  0
   36.2651   -2.6810   12.8457 H   0  0  0  0  0  0  0  0  0  0  0  0
   37.2457   -1.9043   14.1176 H   0  0  0  0  0  0  0  0  0  0  0  0
   39.0795   -4.9407   21.7993 C   0  0  0  0  0  0  0  0  0  0  0  0
   38.1581   -3.8831   21.6207 O   0  0  0  0  0  0  0  0  0  0  0  0
   37.5445   -3.0844   22.8996 P   0  0  0  0  0  0  0  0  0  0  0  0
   36.0655   -3.0291   22.7028 O   0  0  0  0  0  0  0  0  0  0  0  0
   38.0715   -3.7005   24.1473 O   0  0  0  0  0  0  0  0  0  0  0  0
   38.0473   -1.4559   22.6720 O   0  0  0  0  0  0  0  0  0  0  0  0
   38.9441   -0.3334   23.4755 P   0  0  0  0  0  0  0  0  0  0  0  0
   40.0697   -1.0860   24.0651 O   0  0  0  0  0  0  0  0  0  0  0  0
   39.3349    0.6370   22.3973 O   0  0  0  0  0  0  0  0  0  0  0  0
   38.0214    0.2454   24.4797 O   0  0  0  0  0  0  0  0  0  0  0  0
   39.3052   -8.2819   20.1629 O   0  0  0  0  0  0  0  0  0  0  0  0
   40.2936   -9.6016   20.6083 P   0  0  0  0  0  0  0  0  0  0  0  0
   39.2630  -10.6161   20.9416 O   0  0  0  0  0  0  0  0  0  0  0  0
   41.0602   -9.8654   19.3640 O   0  0  0  0  0  0  0  0  0  0  0  0
   41.1551   -9.1188   21.7301 O   0  0  0  0  0  0  0  0  0  0  0  0
 26 25  1  0  0  0
 26 29  2  0  0  0
 26 28  2  0  0  0
 26 27  2  0  0  0
 25 22  1  0  0  0
 22 21  1  0  0  0
 22 24  2  0  0  0
 22 23  2  0  0  0
 21 20  1  0  0  0
 20  1  1  0  0  0
  1  3  1  0  0  0
  1  2  1  0  0  0
  2  6  1  0  0  0
  6  8  1  0  0  0
  6  4  1  0  0  0
  4  5  1  0  0  0
  4  3  1  0  0  0
  3 30  1  0  0  0
 30 31  1  0  0  0
 31 34  2  0  0  0
 31 33  2  0  0  0
 31 32  2  0  0  0
  8 17  1  0  0  0
  8  9  1  0  0  0
  9 10  2  0  0  0
 10 11  1  0  0  0
 11 17  2  0  0  0
 11 12  1  0  0  0
 12 14  2  0  0  0
 12 13  1  0  0  0
 14 15  1  0  0  0
 15 16  2  0  0  0
 16 17  1  0  0  0
  5  7  1  0  0  0
 13 18  1  0  0  0
 13 19  1  0  0  0
M  END
> <minimizedAffinity>
-6.08020

$$$$
1afk_ligand


 34 36  0  0  0  0  0  0  0  0999 V2000
   37.2498   -7.8004   18.5301 C   0  0  0  0  0  0  0  0  0  0  0  0
   37.4896   -7.3253   19.8590 O   0  0  0  0  0  0  0  0  0  0  0  0
   37.8561   -6.7470   17.5632 C   0  0  0  0  0  0  0  0  0  0  0  0
   38.8445   -6.0422   18.4842 C   0  0  0  0  0  0  0  0  0  0  0  0
   39.1812   -4.7327   17.9748 O   0  0  0  0  0  0  0  0  0  0  0  0
   37.9170   -5.9796   19.7137 C   0  0  0  0  0  0  0  0  0  0  0  0
   38.3864   -4.2798   17.7184 H   0  0  0  0  0  0  0  0  0  0  0  0
   38.5509   -5.6554   21.0116 N   0  0  0  0  0  0  0  0  0  0  0  0
   39.6820   -6.2891   21.4620 C   0  0  0  0  0  0  0  0  0  0  0  0
   40.0906   -5.8822   22.6272 N   0  0  0  0  0  0  0  0  0  0  0  0
   39.1513   -4.8733   23.0135 C   0  0  0  0  0  0  0  0  0  0  0  0
   39.0573   -4.0232   24.1968 C   0  0  0  0  0  0  0  0  0  0  0  0
   39.8877   -4.1537   25.2496 N   0  0  0  0  0  0  0  0  0  0  0  0
   38.0389   -3.1241   24.2378 N   0  0  0  0  0  0  0  0  0  0  0  0
   37.1840   -3.0962   23.2049 C   0  0  0  0  0  0  0  0  0  0  0  0
   37.1437   -3.8240   22.0625 N   0  0  0  0  0  0  0  0  0  0  0  0
   38.1907   -4.7222   22.0194 C   0  0  0  0  0  0  0  0  0  0  0  0
   39.7868   -3.5327   26.0652 H   0  0  0  0  0  0  0  0  0  0  0  0
   40.6234   -4.8744   25.2390 H   0  0  0  0  0  0  0  0  0  0  0  0
   37.9267   -9.1371   18.4471 C   0  0  0  0  0  0  0  0  0  0  0  0
   38.1945   -9.5118   19.7840 O   0  0  0  0  0  0  0  0  0  0  0  0
   39.3489  -10.6063   20.1299 P   0  0  0  0  0  0  0  0  0  0  0  0
   40.1197  -10.8308   18.8711 O   0  0  0  0  0  0  0  0  0  0  0  0
   40.0858  -10.1586   21.3426 O   0  0  0  0  0  0  0  0  0  0  0  0
   38.4920  -12.0805   20.3517 O   0  0  0  0  0  0  0  0  0  0  0  0
   38.0849  -13.0785   21.5960 P   0  0  0  0  0  0  0  0  0  0  0  0
   37.4461  -12.2048   22.6008 O   0  0  0  0  0  0  0  0  0  0  0  0
   37.1623  -14.0759   20.9550 O   0  0  0  0  0  0  0  0  0  0  0  0
   39.3665  -13.6695   22.0467 O   0  0  0  0  0  0  0  0  0  0  0  0
   36.8072   -5.8400   17.1174 O   0  0  0  0  0  0  0  0  0  0  0  0
   36.8458   -5.1612   15.5507 P   0  0  0  0  0  0  0  0  0  0  0  0
   35.5172   -5.5786   15.0379 O   0  0  0  0  0  0  0  0  0  0  0  0
   36.9872   -3.7097   15.8309 O   0  0  0  0  0  0  0  0  0  0  0  0
   38.0450   -5.7415   14.8731 O   0  0  0  0  0  0  0  0  0  0  0  0
 26 25  1  0  0  0
 26 29  2  0  0  0
 26 28  2  0  0  0
 26 27  2  0  0  0
 25 22  1  0  0  0
 22 21  1  0  0  0
 22 24  2  0  0  0
 22 23  2  0  0  0
 21 20  1  0  0  0
 20  1  1  0  0  0
  1  3  1  0  0  0
  1  2  1  0  0  0
  2  6  1  0  0  0
  6  8  1  0  0  0
  6  4  1  0  0  0
  4  5  1  0  0  0
  4  3  1  0  0  0
  3 30  1  0  0  0
 30 31  1  0  0  0
 31 34  2  0  0  0
 31 33  2  0  0  0
 31 32  2  0  0  0
  8 17  1  0  0  0
  8  9  1  0  0  0
  9 10  2  0  0  0
 10 11  1  0  0  0
 11 17  2  0  0  0
 11 12  1  0  0  0
 12 14  2  0  0  0
 12 13  1  0  0  0
 14 15  1  0  0  0
 15 16  2  0  0  0
 16 17  1  0  0  0
  5  7  1  0  0  0
 13 18  1  0  0  0
 13 19  1  0  0  0
M  END
> <minimizedAffinity>
-5.88304

$$$$
1afk_ligand


 34 36  0  0  0  0  0  0  0  0999 V2000
   37.9966   -5.7233   18.8696 C   0  0  0  0  0  0  0  0  0  0  0  0
   37.7415   -7.0618   18.4308 O   0  0  0  0  0  0  0  0  0  0  0  0
   38.7638   -5.8333   20.2156 C   0  0  0  0  0  0  0  0  0  0  0  0
   39.3191   -7.2491   20.1185 C   0  0  0  0  0  0  0  0  0  0  0  0
   39.6573   -7.7617   21.4264 O   0  0  0  0  0  0  0  0  0  0  0  0
   38.0435   -7.8933   19.5408 C   0  0  0  0  0  0  0  0  0  0  0  0
   38.9434   -7.5867   22.0282 H   0  0  0  0  0  0  0  0  0  0  0  0
   38.1855   -9.2459   18.9563 N   0  0  0  0  0  0  0  0  0  0  0  0
   37.9643   -9.5049   17.6266 C   0  0  0  0  0  0  0  0  0  0  0  0
   38.1260  -10.7513   17.2942 N   0  0  0  0  0  0  0  0  0  0  0  0
   38.4931  -11.4108   18.5106 C   0  0  0  0  0  0  0  0  0  0  0  0
   38.8255  -12.8006   18.8104 C   0  0  0  0  0  0  0  0  0  0  0  0
   38.7310  -13.7816   17.8919 N   0  0  0  0  0  0  0  0  0  0  0  0
   39.1711  -13.0954   20.0912 N   0  0  0  0  0  0  0  0  0  0  0  0
   39.1612  -12.0995   20.9894 C   0  0  0  0  0  0  0  0  0  0  0  0
   38.8667  -10.7835   20.8564 N   0  0  0  0  0  0  0  0  0  0  0  0
   38.5342  -10.4878   19.5500 C   0  0  0  0  0  0  0  0  0  0  0  0
   38.9755  -14.7496   18.1452 H   0  0  0  0  0  0  0  0  0  0  0  0
   38.4142  -13.5637   16.9363 H   0  0  0  0  0  0  0  0  0  0  0  0
   38.8056   -5.0844   17.7791 C   0  0  0  0  0  0  0  0  0  0  0  0
   37.9446   -4.1441   17.1675 O   0  0  0  0  0  0  0  0  0  0  0  0
   38.2272   -3.6123   15.6551 P   0  0  0  0  0  0  0  0  0  0  0  0
   36.9862   -2.9144   15.2057 O   0  0  0  0  0  0  0  0  0  0  0  0
   39.5092   -2.8568   15.6445 O   0  0  0  0  0  0  0  0  0  0  0  0
   38.2626   -5.0392   14.6964 O   0  0  0  0  0  0  0  0  0  0  0  0
   37.2221   -6.2345   14.2508 P   0  0  0  0  0  0  0  0  0  0  0  0
   36.5452   -6.6443   15.4977 O   0  0  0  0  0  0  0  0  0  0  0  0
   36.3308   -5.5633   13.2448 O   0  0  0  0  0  0  0  0  0  0  0  0
   38.0808   -7.2891   13.6629 O   0  0  0  0  0  0  0  0  0  0  0  0
   37.8225   -5.7075   21.3201 O   0  0  0  0  0  0  0  0  0  0  0  0
   38.1598   -4.6823   22.6437 P   0  0  0  0  0  0  0  0  0  0  0  0
   38.9852   -3.6419   21.9816 O   0  0  0  0  0  0  0  0  0  0  0  0
   36.8054   -4.2412   23.0639 O   0  0  0  0  0  0  0  0  0  0  0  0
   38.8379   -5.5326   23.6689 O   0  0  0  0  0  0  0  0  0  0  0  0
 26 25  1  0  0  0
 26 29  2  0  0  0
 26 28  2  0  0  0
 26 27  2  0  0  0
 25 22  1  0  0  0
 22 21  1  0  0  0
 22 24  2  0  0  0
 22 23  2  0  0  0
 21 20  1  0  0  0
 20  1  1  0  0  0
  1  3  1  0  0  0
  1  2  1  0  0  0
  2  6  1  0  0  0
  6  8  1  0  0  0
  6  4  1  0  0  0
  4  5  1  0  0  0
  4  3  1  0  0  0
  3 30  1  0  0  0
 30 31  1  0  0  0
 31 34  2  0  0  0
 31 33  2  0  0  0
 31 32  2  0  0  0
  8 17  1  0  0  0
  8  9  1  0  0  0
  9 10  2  0  0  0
 10 11  1  0  0  0
 11 17  2  0  0  0
 11 12  1  0  0  0
 12 14  2  0  0  0
 12 13  1  0  0  0
 14 15  1  0  0  0
 15 16  2  0  0  0
 16 17  1  0  0  0
  5  7  1  0  0  0
 13 18  1  0  0  0
 13 19  1  0  0  0
M  END
> <minimizedAffinity>
-5.68782

$$$$
