1a9q_ligand


 12 13  0  0  0  0  0  0  0  0999 V2000
   21.2872   91.4912   74.1730 N   0  0  0  0  0  0  0  0  0  0  0  0
   21.1650   90.1404   74.1263 C   0  0  0  0  0  0  0  0  0  0  0  0
   22.1583   89.3384   73.8190 N   0  0  0  0  0  0  0  0  0  0  0  0
   23.2893   90.0070   73.5642 C   0  0  0  0  0  0  0  0  0  0  0  0
   23.4803   91.3637   73.5891 C   0  0  0  0  0  0  0  0  0  0  0  0
   22.4143   92.2199   73.9148 C   0  0  0  0  0  0  0  0  0  0  0  0
   22.3651   93.4526   74.0093 O   0  0  0  0  0  0  0  0  0  0  0  0
   24.7879   91.6241   73.2705 N   0  0  0  0  0  0  0  0  0  0  0  0
   25.3826   90.4267   73.0638 C   0  0  0  0  0  0  0  0  0  0  0  0
   24.4848   89.4041   73.2384 N   0  0  0  0  0  0  0  0  0  0  0  0
   20.4675   92.0069   74.4221 H   0  0  0  0  0  0  0  0  0  0  0  0
   24.6667   88.3945   73.1452 H   0  0  0  0  0  0  0  0  0  0  0  0
  1  2  1  0  0  0
  1  6  1  0  0  0
  2  3  2  0  0  0
  3  4  1  0  0  0
  4  5  2  0  0  0
  4 10  1  0  0  0
  5  6  1  0  0  0
  5  8  1  0  0  0
  6  7  2  0  0  0
  8  9  2  0  0  0
  9 10  1  0  0  0
  1 11  1  0  0  0
 10 12  1  0  0  0
M  END
> <minimizedAffinity>
-5.76969

$$$$
1a9q_ligand


 12 13  0  0  0  0  0  0  0  0999 V2000
   25.9149   89.7431   72.9410 N   0  0  0  0  0  0  0  0  0  0  0  0
   24.8559   88.8962   72.9945 C   0  0  0  0  0  0  0  0  0  0  0  0
   23.6400   89.2833   73.3042 N   0  0  0  0  0  0  0  0  0  0  0  0
   23.5745   90.5965   73.5542 C   0  0  0  0  0  0  0  0  0  0  0  0
   24.6006   91.5042   73.5225 C   0  0  0  0  0  0  0  0  0  0  0  0
   25.9016   91.0862   73.1940 C   0  0  0  0  0  0  0  0  0  0  0  0
   26.9566   91.7249   73.0936 O   0  0  0  0  0  0  0  0  0  0  0  0
   24.0973   92.7397   73.8379 N   0  0  0  0  0  0  0  0  0  0  0  0
   22.7712   92.5759   74.0497 C   0  0  0  0  0  0  0  0  0  0  0  0
   22.4131   91.2621   73.8813 N   0  0  0  0  0  0  0  0  0  0  0  0
   26.7964   89.3430   72.6905 H   0  0  0  0  0  0  0  0  0  0  0  0
   21.4711   90.8573   73.9792 H   0  0  0  0  0  0  0  0  0  0  0  0
  1  2  1  0  0  0
  1  6  1  0  0  0
  2  3  2  0  0  0
  3  4  1  0  0  0
  4  5  2  0  0  0
  4 10  1  0  0  0
  5  6  1  0  0  0
  5  8  1  0  0  0
  6  7  2  0  0  0
  8  9  2  0  0  0
  9 10  1  0  0  0
  1 11  1  0  0  0
 10 12  1  0  0  0
M  END
> <minimizedAffinity>
-5.51573

$$$$
1a9q_ligand


 12 13  0  0  0  0  0  0  0  0999 V2000
   24.7510   92.9572   74.2270 N   0  0  0  0  0  0  0  0  0  0  0  0
   23.4303   92.6726   74.3553 C   0  0  0  0  0  0  0  0  0  0  0  0
   22.9163   91.4986   74.0693 N   0  0  0  0  0  0  0  0  0  0  0  0
   23.8417   90.6300   73.6447 C   0  0  0  0  0  0  0  0  0  0  0  0
   25.1849   90.8516   73.4885 C   0  0  0  0  0  0  0  0  0  0  0  0
   25.7317   92.1103   73.7921 C   0  0  0  0  0  0  0  0  0  0  0  0
   26.8976   92.5212   73.7393 O   0  0  0  0  0  0  0  0  0  0  0  0
   25.7662   89.6954   73.0364 N   0  0  0  0  0  0  0  0  0  0  0  0
   24.7763   88.7795   72.9301 C   0  0  0  0  0  0  0  0  0  0  0  0
   23.5722   89.3234   73.2997 N   0  0  0  0  0  0  0  0  0  0  0  0
   25.0362   93.8825   74.4766 H   0  0  0  0  0  0  0  0  0  0  0  0
   22.6562   88.8525   73.3159 H   0  0  0  0  0  0  0  0  0  0  0  0
  1  2  1  0  0  0
  1  6  1  0  0  0
  2  3  2  0  0  0
  3  4  1  0  0  0
  4  5  2  0  0  0
  4 10  1  0  0  0
  5  6  1  0  0  0
  5  8  1  0  0  0
  6  7  2  0  0  0
  8  9  2  0  0  0
  9 10  1  0  0  0
  1 11  1  0  0  0
 10 12  1  0  0  0
M  END
> <minimizedAffinity>
-5.50174

$$$$
1a9q_ligand


 12 13  0  0  0  0  0  0  0  0999 V2000
   21.5831   91.3998   74.0450 N   0  0  0  0  0  0  0  0  0  0  0  0
   22.3251   92.5361   74.0477 C   0  0  0  0  0  0  0  0  0  0  0  0
   23.6102   92.5567   73.7784 N   0  0  0  0  0  0  0  0  0  0  0  0
   24.0898   91.3381   73.5027 C   0  0  0  0  0  0  0  0  0  0  0  0
   23.4004   90.1539   73.4863 C   0  0  0  0  0  0  0  0  0  0  0  0
   22.0257   90.1345   73.7784 C   0  0  0  0  0  0  0  0  0  0  0  0
   21.2170   89.1985   73.8083 O   0  0  0  0  0  0  0  0  0  0  0  0
   24.2708   89.1492   73.1515 N   0  0  0  0  0  0  0  0  0  0  0  0
   25.4775   89.7296   72.9586 C   0  0  0  0  0  0  0  0  0  0  0  0
   25.4017   91.0837   73.1663 N   0  0  0  0  0  0  0  0  0  0  0  0
   20.6116   91.4986   74.2606 H   0  0  0  0  0  0  0  0  0  0  0  0
   26.1671   91.7684   73.0872 H   0  0  0  0  0  0  0  0  0  0  0  0
  1  2  1  0  0  0
  1  6  1  0  0  0
  2  3  2  0  0  0
  3  4  1  0  0  0
  4  5  2  0  0  0
  4 10  1  0  0  0
  5  6  1  0  0  0
  5  8  1  0  0  0
  6  7  2  0  0  0
  8  9  2  0  0  0
  9 10  1  0  0  0
  1 11  1  0  0  0
 10 12  1  0  0  0
M  END
> <minimizedAffinity>
-5.48643

$$$$
1a9q_ligand


 12 13  0  0  0  0  0  0  0  0999 V2000
   23.2469   89.3638   73.4858 N   0  0  0  0  0  0  0  0  0  0  0  0
   22.5900   90.4254   74.0180 C   0  0  0  0  0  0  0  0  0  0  0  0
   23.1709   91.5737   74.2790 N   0  0  0  0  0  0  0  0  0  0  0  0
   24.4701   91.5689   73.9578 C   0  0  0  0  0  0  0  0  0  0  0  0
   25.1939   90.5353   73.4235 C   0  0  0  0  0  0  0  0  0  0  0  0
   24.5702   89.3062   73.1484 C   0  0  0  0  0  0  0  0  0  0  0  0
   25.0192   88.2607   72.6623 O   0  0  0  0  0  0  0  0  0  0  0  0
   26.4865   90.9561   73.2464 N   0  0  0  0  0  0  0  0  0  0  0  0
   26.5366   92.2416   73.6648 C   0  0  0  0  0  0  0  0  0  0  0  0
   25.3062   92.6537   74.1104 N   0  0  0  0  0  0  0  0  0  0  0  0
   22.7067   88.5381   73.3236 H   0  0  0  0  0  0  0  0  0  0  0  0
   25.0586   93.5819   74.4821 H   0  0  0  0  0  0  0  0  0  0  0  0
  1  2  1  0  0  0
  1  6  1  0  0  0
  2  3  2  0  0  0
  3  4  1  0  0  0
  4  5  2  0  0  0
  4 10  1  0  0  0
  5  6  1  0  0  0
  5  8  1  0  0  0
  6  7  2  0  0  0
  8  9  2  0  0  0
  9 10  1  0  0  0
  1 11  1  0  0  0
 10 12  1  0  0  0
M  END
> <minimizedAffinity>
-5.30033

$$$$
1a9q_ligand


 12 13  0  0  0  0  0  0  0  0999 V2000
   24.2433   89.6699   73.3391 N   0  0  0  0  0  0  0  0  0  0  0  0
   25.2540   90.5646   73.1989 C   0  0  0  0  0  0  0  0  0  0  0  0
   25.1242   91.8439   73.4646 N   0  0  0  0  0  0  0  0  0  0  0  0
   23.8920   92.1515   73.8868 C   0  0  0  0  0  0  0  0  0  0  0  0
   22.8284   91.3023   74.0465 C   0  0  0  0  0  0  0  0  0  0  0  0
   22.9693   89.9340   73.7579 C   0  0  0  0  0  0  0  0  0  0  0  0
   22.1609   89.0010   73.8413 O   0  0  0  0  0  0  0  0  0  0  0  0
   21.7580   92.0278   74.5015 N   0  0  0  0  0  0  0  0  0  0  0  0
   22.1801   93.3073   74.6233 C   0  0  0  0  0  0  0  0  0  0  0  0
   23.4963   93.4198   74.2525 N   0  0  0  0  0  0  0  0  0  0  0  0
   24.4523   88.7186   73.1125 H   0  0  0  0  0  0  0  0  0  0  0  0
   24.0699   94.2753   74.2484 H   0  0  0  0  0  0  0  0  0  0  0  0
  1  2  1  0  0  0
  1  6  1  0  0  0
  2  3  2  0  0  0
  3  4  1  0  0  0
  4  5  2  0  0  0
  4 10  1  0  0  0
  5  6  1  0  0  0
  5  8  1  0  0  0
  6  7  2  0  0  0
  8  9  2  0  0  0
  9 10  1  0  0  0
  1 11  1  0  0  0
 10 12  1  0  0  0
M  END
> <minimizedAffinity>
-5.27842

$$$$
1a9q_ligand


 12 13  0  0  0  0  0  0  0  0999 V2000
   25.6799   90.8654   73.4996 N   0  0  0  0  0  0  0  0  0  0  0  0
   25.2993   92.1503   73.7136 C   0  0  0  0  0  0  0  0  0  0  0  0
   24.0465   92.5140   73.8638 N   0  0  0  0  0  0  0  0  0  0  0  0
   23.2046   91.4768   73.7837 C   0  0  0  0  0  0  0  0  0  0  0  0
   23.5197   90.1610   73.5663 C   0  0  0  0  0  0  0  0  0  0  0  0
   24.8612   89.7752   73.4024 C   0  0  0  0  0  0  0  0  0  0  0  0
   25.3666   88.6619   73.2128 O   0  0  0  0  0  0  0  0  0  0  0  0
   22.3591   89.4316   73.5615 N   0  0  0  0  0  0  0  0  0  0  0  0
   21.3507   90.3055   73.7844 C   0  0  0  0  0  0  0  0  0  0  0  0
   21.8380   91.5800   73.9277 N   0  0  0  0  0  0  0  0  0  0  0  0
   26.6612   90.6989   73.4030 H   0  0  0  0  0  0  0  0  0  0  0  0
   21.2947   92.4367   74.1062 H   0  0  0  0  0  0  0  0  0  0  0  0
  1  2  1  0  0  0
  1  6  1  0  0  0
  2  3  2  0  0  0
  3  4  1  0  0  0
  4  5  2  0  0  0
  4 10  1  0  0  0
  5  6  1  0  0  0
  5  8  1  0  0  0
  6  7  2  0  0  0
  8  9  2  0  0  0
  9 10  1  0  0  0
  1 11  1  0  0  0
 10 12  1  0  0  0
M  END
> <minimizedAffinity>
-5.27567

$$$$
1a9q_ligand


 12 13  0  0  0  0  0  0  0  0999 V2000
   22.1227   91.3875   73.3551 N   0  0  0  0  0  0  0  0  0  0  0  0
   22.0173   90.0385   73.4585 C   0  0  0  0  0  0  0  0  0  0  0  0
   21.9568   89.4077   74.6086 N   0  0  0  0  0  0  0  0  0  0  0  0
   22.0085   90.2466   75.6501 C   0  0  0  0  0  0  0  0  0  0  0  0
   22.1186   91.6121   75.6171 C   0  0  0  0  0  0  0  0  0  0  0  0
   22.1866   92.2843   74.3846 C   0  0  0  0  0  0  0  0  0  0  0  0
   22.2732   93.4906   74.1235 O   0  0  0  0  0  0  0  0  0  0  0  0
   22.1327   92.0780   76.9063 N   0  0  0  0  0  0  0  0  0  0  0  0
   22.0224   90.9960   77.7109 C   0  0  0  0  0  0  0  0  0  0  0  0
   21.9421   89.8461   76.9669 N   0  0  0  0  0  0  0  0  0  0  0  0
   22.1572   91.7646   72.4296 H   0  0  0  0  0  0  0  0  0  0  0  0
   21.8510   88.8826   77.3197 H   0  0  0  0  0  0  0  0  0  0  0  0
  1  2  1  0  0  0
  1  6  1  0  0  0
  2  3  2  0  0  0
  3  4  1  0  0  0
  4  5  2  0  0  0
  4 10  1  0  0  0
  5  6  1  0  0  0
  5  8  1  0  0  0
  6  7  2  0  0  0
  8  9  2  0  0  0
  9 10  1  0  0  0
  1 11  1  0  0  0
 10 12  1  0  0  0
M  END
> <minimizedAffinity>
-5.13778

$$$$
1a9q_ligand


 12 13  0  0  0  0  0  0  0  0999 V2000
   21.7906   91.2806   73.6881 N   0  0  0  0  0  0  0  0  0  0  0  0
   22.1319   92.4936   74.1921 C   0  0  0  0  0  0  0  0  0  0  0  0
   22.2794   92.7233   75.4765 N   0  0  0  0  0  0  0  0  0  0  0  0
   22.0576   91.6299   76.2156 C   0  0  0  0  0  0  0  0  0  0  0  0
   21.7074   90.3808   75.7739 C   0  0  0  0  0  0  0  0  0  0  0  0
   21.5468   90.1388   74.3988 C   0  0  0  0  0  0  0  0  0  0  0  0
   21.2528   89.1042   73.7872 O   0  0  0  0  0  0  0  0  0  0  0  0
   21.5838   89.5546   76.8608 N   0  0  0  0  0  0  0  0  0  0  0  0
   21.8677   90.3032   77.9513 C   0  0  0  0  0  0  0  0  0  0  0  0
   22.1666   91.5922   77.5888 N   0  0  0  0  0  0  0  0  0  0  0  0
   21.7090   91.2154   72.6936 H   0  0  0  0  0  0  0  0  0  0  0  0
   22.4200   92.3707   78.2138 H   0  0  0  0  0  0  0  0  0  0  0  0
  1  2  1  0  0  0
  1  6  1  0  0  0
  2  3  2  0  0  0
  3  4  1  0  0  0
  4  5  2  0  0  0
  4 10  1  0  0  0
  5  6  1  0  0  0
  5  8  1  0  0  0
  6  7  2  0  0  0
  8  9  2  0  0  0
  9 10  1  0  0  0
  1 11  1  0  0  0
 10 12  1  0  0  0
M  END
> <minimizedAffinity>
-5.09415

$$$$
1a9q_ligand


 12 13  0  0  0  0  0  0  0  0999 V2000
   23.6666   91.7514   73.5904 N   0  0  0  0  0  0  0  0  0  0  0  0
   23.9897   90.4379   73.4806 C   0  0  0  0  0  0  0  0  0  0  0  0
   23.1547   89.4654   73.7655 N   0  0  0  0  0  0  0  0  0  0  0  0
   21.9632   89.9223   74.1687 C   0  0  0  0  0  0  0  0  0  0  0  0
   21.5731   91.2288   74.3056 C   0  0  0  0  0  0  0  0  0  0  0  0
   22.4703   92.2677   74.0032 C   0  0  0  0  0  0  0  0  0  0  0  0
   22.3294   93.4963   74.0410 O   0  0  0  0  0  0  0  0  0  0  0  0
   20.2730   91.2508   74.7394 N   0  0  0  0  0  0  0  0  0  0  0  0
   19.8805   89.9612   74.8541 C   0  0  0  0  0  0  0  0  0  0  0  0
   20.9011   89.1123   74.5077 N   0  0  0  0  0  0  0  0  0  0  0  0
   24.3775   92.4098   73.3437 H   0  0  0  0  0  0  0  0  0  0  0  0
   20.8782   88.0826   74.5021 H   0  0  0  0  0  0  0  0  0  0  0  0
  1  2  1  0  0  0
  1  6  1  0  0  0
  2  3  2  0  0  0
  3  4  1  0  0  0
  4  5  2  0  0  0
  4 10  1  0  0  0
  5  6  1  0  0  0
  5  8  1  0  0  0
  6  7  2  0  0  0
  8  9  2  0  0  0
  9 10  1  0  0  0
  1 11  1  0  0  0
 10 12  1  0  0  0
M  END
> <minimizedAffinity>
-5.07548

$$$$
